_E-4031
XXILIB    06242209073D 0   0.00000     0.00000

 55 57  0     1  0            999 V2000
   -4.1250  -10.6099   -0.1407 S   0  0  0  0  0  6           0  0  0
   -3.2900  -10.5299    1.0419 O   0  0  0  0  0  2           0  0  0
   -4.2983  -11.8624   -0.8519 O   0  0  0  0  0  2           0  0  0
   -3.3743   -3.6612    1.6020 O   0  0  0  0  0  2           0  0  0
   -1.0277    3.1665   -3.8967 N   0  0  0  0  0  3           0  0  0
   -3.6686   -9.3785   -1.2364 N   0  0  0  0  0  3           0  0  0
   -1.0556   -0.5275   -1.1883 N   0  0  0  0  0  3           0  0  0
   -0.3910    2.9283   -2.7230 C   0  0  0  0  0  4           0  0  0
   -0.4922    4.0901   -4.7327 C   0  0  0  0  0  4           0  0  0
   -3.5985   -8.0086   -0.8032 C   0  0  0  0  0  4           0  0  0
   -3.2777   -5.3397   -0.0011 C   0  0  0  0  0  4           0  0  0
    0.7800    3.5857   -2.3578 C   0  0  0  0  0  4           0  0  0
    0.6735    4.7880   -4.4375 C   0  0  0  0  0  4           0  0  0
   -2.7173   -7.6853    0.2325 C   0  0  0  0  0  4           0  0  0
   -4.2865   -6.9865   -1.4646 C   0  0  0  0  0  4           0  0  0
   -2.5660   -6.3584    0.6417 C   0  0  0  0  0  4           0  0  0
   -4.1352   -5.6571   -1.0588 C   0  0  0  0  0  4           0  0  0
    1.3122    4.5267   -3.2312 C   0  0  0  0  0  4           0  0  0
   -5.7428  -10.0176    0.2886 C   0  0  0  0  0  4           0  0  0
   -3.0992   -3.9547    0.4433 C   0  0  0  0  0  4           0  0  0
   -0.4653    0.4821   -2.0736 C   0  0  0  0  0  4           0  0  0
   -0.4983   -1.8547   -1.4948 C   0  0  0  0  0  4           0  0  0
   -2.5240   -0.5458   -1.2922 C   0  0  0  0  0  4           0  0  0
   -0.9965    1.8917   -1.8148 C   0  0  0  0  0  4           0  0  0
   -1.2124    4.3486   -6.0204 C   0  0  0  0  0  4           0  0  0
   -2.5723   -2.9728   -0.5763 C   0  0  0  0  0  4           0  0  0
   -1.0428   -2.9261   -0.5480 C   0  0  0  0  0  4           0  0  0
   -3.1328   -1.5684   -0.3311 C   0  0  0  0  0  4           0  0  0
   -3.4426   -9.6192   -2.2121 H   0  0  0  0  0  1           0  0  0
    1.2598    3.3715   -1.4256 H   0  0  0  0  0  1           0  0  0
    1.0693    5.5086   -5.1224 H   0  0  0  0  0  1           0  0  0
   -2.1558   -8.4582    0.7145 H   0  0  0  0  0  1           0  0  0
   -4.9316   -7.2228   -2.2850 H   0  0  0  0  0  1           0  0  0
   -1.9045   -6.1206    1.4483 H   0  0  0  0  0  1           0  0  0
   -4.6767   -4.8813   -1.5585 H   0  0  0  0  0  1           0  0  0
    2.2108    5.0483   -2.9757 H   0  0  0  0  0  1           0  0  0
   -6.3799  -10.0665   -0.5696 H   0  0  0  0  0  1           0  0  0
   -5.6740   -9.0040    0.6244 H   0  0  0  0  0  1           0  0  0
   -6.1494  -10.6253    1.0698 H   0  0  0  0  0  1           0  0  0
   -0.6843    0.2164   -3.0867 H   0  0  0  0  0  1           0  0  0
    0.5946    0.4855   -1.9269 H   0  0  0  0  0  1           0  0  0
    0.5666   -1.8149   -1.3986 H   0  0  0  0  0  1           0  0  0
   -0.7561   -2.1159   -2.4999 H   0  0  0  0  0  1           0  0  0
   -2.8000   -0.8007   -2.2941 H   0  0  0  0  0  1           0  0  0
   -2.9031    0.4260   -1.0541 H   0  0  0  0  0  1           0  0  0
   -2.0564    1.8882   -1.9614 H   0  0  0  0  0  1           0  0  0
   -0.7774    2.1572   -0.8017 H   0  0  0  0  0  1           0  0  0
   -1.9276    5.1317   -5.8781 H   0  0  0  0  0  1           0  0  0
   -1.7163    3.4577   -6.3324 H   0  0  0  0  0  1           0  0  0
   -0.5078    4.6412   -6.7706 H   0  0  0  0  0  1           0  0  0
   -2.8847   -3.2980   -1.5466 H   0  0  0  0  0  1           0  0  0
   -0.7198   -2.7068    0.4482 H   0  0  0  0  0  1           0  0  0
   -0.6600   -3.8801   -0.8452 H   0  0  0  0  0  1           0  0  0
   -4.1935   -1.5882   -0.4708 H   0  0  0  0  0  1           0  0  0
   -2.9108   -1.2761    0.6739 H   0  0  0  0  0  1           0  0  0
  1  2  2  0     0  0
  1  3  2  0     0  0
  1  6  1  0     0  0
  1 19  1  0     0  0
  4 20  2  0     0  0
  5  8  2  0     0  0
  5  9  1  0     0  0
  6 10  1  0     0  0
  6 29  1  0     0  0
  7 21  1  0     0  0
  7 22  1  0     0  0
  7 23  1  0     0  0
  8 12  1  0     0  0
  8 24  1  0     0  0
  9 13  2  0     0  0
  9 25  1  0     0  0
 10 14  2  0     0  0
 10 15  1  0     0  0
 11 16  2  0     0  0
 11 17  1  0     0  0
 11 20  1  0     0  0
 12 18  2  0     0  0
 12 30  1  0     0  0
 13 18  1  0     0  0
 13 31  1  0     0  0
 14 16  1  0     0  0
 14 32  1  0     0  0
 15 17  2  0     0  0
 15 33  1  0     0  0
 16 34  1  0     0  0
 17 35  1  0     0  0
 18 36  1  0     0  0
 19 37  1  0     0  0
 19 38  1  0     0  0
 19 39  1  0     0  0
 20 26  1  0     0  0
 21 24  1  0     0  0
 21 40  1  0     0  0
 21 41  1  0     0  0
 22 27  1  0     0  0
 22 42  1  0     0  0
 22 43  1  0     0  0
 23 28  1  0     0  0
 23 44  1  0     0  0
 23 45  1  0     0  0
 24 46  1  0     0  0
 24 47  1  0     0  0
 25 48  1  0     0  0
 25 49  1  0     0  0
 25 50  1  0     0  0
 26 27  1  0     0  0
 26 28  1  0     0  0
 26 51  1  0     0  0
 27 52  1  0     0  0
 27 53  1  0     0  0
 28 54  1  0     0  0
 28 55  1  0     0  0
M  END
> <Smiles>
Cc1cccc(CCN2CCC(C(=O)c3ccc(NS(C)(=O)=O)cc3)CC2)n1

> <Name>
E-4031

> <# Confs.>
25

> <Chembl_id>
CHEMBL327980

> <prediction>
6.270548736102304

$$$$
