_Propafenone
XXILIB    06242209073D 0   0.00000     0.00000

 52 53  0     1  0            999 V2000
   -2.7862   -0.9364   -1.5005 O   0  0  0  0  0  2           0  0  0
   -4.3650   -1.5333    2.1050 O   0  0  0  0  0  2           0  0  0
   -0.7795   -2.9082   -1.1977 O   0  0  0  0  0  2           0  0  0
    1.2984   -1.6862   -2.7569 N   0  0  0  0  0  3           0  0  0
   -3.0070    0.1750   -0.7371 C   0  0  0  0  0  4           0  0  0
   -3.7168    0.0075    0.4661 C   0  0  0  0  0  4           0  0  0
   -6.2935   -4.1724   -0.6714 C   0  0  0  0  0  4           0  0  0
   -2.5358    1.4534   -1.0705 C   0  0  0  0  0  4           0  0  0
   -3.9255    1.1007    1.3199 C   0  0  0  0  0  4           0  0  0
   -5.7362   -5.4579   -0.7030 C   0  0  0  0  0  4           0  0  0
   -7.3128   -3.8512   -1.5782 C   0  0  0  0  0  4           0  0  0
   -2.7594    2.5395   -0.2210 C   0  0  0  0  0  4           0  0  0
   -3.4498    2.3633    0.9735 C   0  0  0  0  0  4           0  0  0
   -6.1828   -6.4003   -1.6309 C   0  0  0  0  0  4           0  0  0
   -7.7579   -4.7953   -2.5052 C   0  0  0  0  0  4           0  0  0
   -7.1926   -6.0689   -2.5323 C   0  0  0  0  0  4           0  0  0
   -4.2666   -1.2972    0.9035 C   0  0  0  0  0  4           0  0  0
   -1.0648   -2.3322   -2.4733 C   0  0  0  0  0  4           0  0  0
   -1.5933   -0.9167   -2.2816 C   0  0  0  0  0  4           0  0  0
    0.1792   -2.4101   -3.3558 C   0  0  0  0  0  4           0  0  0
    2.5015   -1.7454   -3.5821 C   0  0  0  0  0  4           0  0  0
   -5.8284   -3.1633    0.3412 C   0  0  0  0  0  4           0  0  0
   -4.6854   -2.2892   -0.1637 C   0  0  0  0  0  4           0  0  0
    3.6543   -0.9817   -2.9337 C   0  0  0  0  0  4           0  0  0
    3.3051    0.4852   -2.7347 C   0  0  0  0  0  4           0  0  0
   -0.4497   -3.7913   -1.3156 H   0  0  0  0  0  1           0  0  0
    1.5068   -2.1005   -1.8372 H   0  0  0  0  0  1           0  0  0
   -1.9994    1.5982   -1.9850 H   0  0  0  0  0  1           0  0  0
   -4.4525    0.9643    2.2411 H   0  0  0  0  0  1           0  0  0
   -4.9629   -5.7188   -0.0110 H   0  0  0  0  0  1           0  0  0
   -7.7526   -2.8760   -1.5599 H   0  0  0  0  0  1           0  0  0
   -2.3985    3.5102   -0.4901 H   0  0  0  0  0  1           0  0  0
   -3.6150    3.1959    1.6251 H   0  0  0  0  0  1           0  0  0
   -5.7493   -7.3783   -1.6501 H   0  0  0  0  0  1           0  0  0
   -8.5344   -4.5408   -3.1960 H   0  0  0  0  0  1           0  0  0
   -7.5335   -6.7913   -3.2443 H   0  0  0  0  0  1           0  0  0
   -1.8349   -2.9073   -2.9435 H   0  0  0  0  0  1           0  0  0
   -0.8531   -0.3281   -1.7810 H   0  0  0  0  0  1           0  0  0
   -1.8045   -0.4860   -3.2381 H   0  0  0  0  0  1           0  0  0
    0.4545   -3.4365   -3.4811 H   0  0  0  0  0  1           0  0  0
   -0.0428   -1.9813   -4.3107 H   0  0  0  0  0  1           0  0  0
    2.2907   -1.3134   -4.5380 H   0  0  0  0  0  1           0  0  0
    2.7881   -2.7685   -3.7084 H   0  0  0  0  0  1           0  0  0
   -5.4971   -3.6855    1.2144 H   0  0  0  0  0  1           0  0  0
   -6.6534   -2.5311    0.5952 H   0  0  0  0  0  1           0  0  0
   -3.8510   -2.9103   -0.4146 H   0  0  0  0  0  1           0  0  0
   -5.0074   -1.7559   -1.0337 H   0  0  0  0  0  1           0  0  0
    4.5165   -1.0520   -3.5634 H   0  0  0  0  0  1           0  0  0
    3.8709   -1.4202   -1.9820 H   0  0  0  0  0  1           0  0  0
    4.1316    0.9900   -2.2797 H   0  0  0  0  0  1           0  0  0
    2.4462    0.5646   -2.1014 H   0  0  0  0  0  1           0  0  0
    3.0918    0.9329   -3.6828 H   0  0  0  0  0  1           0  0  0
  1  5  1  0     0  0
  1 19  1  0     0  0
  2 17  2  0     0  0
  3 18  1  0     0  0
  3 26  1  0     0  0
  4 20  1  0     0  0
  4 21  1  0     0  0
  4 27  1  0     0  0
  5  6  1  0     0  0
  5  8  2  0     0  0
  6  9  2  0     0  0
  6 17  1  0     0  0
  7 10  2  0     0  0
  7 11  1  0     0  0
  7 22  1  0     0  0
  8 12  1  0     0  0
  8 28  1  0     0  0
  9 13  1  0     0  0
  9 29  1  0     0  0
 10 14  1  0     0  0
 10 30  1  0     0  0
 11 15  2  0     0  0
 11 31  1  0     0  0
 12 13  2  0     0  0
 12 32  1  0     0  0
 13 33  1  0     0  0
 14 16  2  0     0  0
 14 34  1  0     0  0
 15 16  1  0     0  0
 15 35  1  0     0  0
 16 36  1  0     0  0
 17 23  1  0     0  0
 18 19  1  0     0  0
 18 20  1  0     0  0
 18 37  1  0     0  0
 19 38  1  0     0  0
 19 39  1  0     0  0
 20 40  1  0     0  0
 20 41  1  0     0  0
 21 24  1  0     0  0
 21 42  1  0     0  0
 21 43  1  0     0  0
 22 23  1  0     0  0
 22 44  1  0     0  0
 22 45  1  0     0  0
 23 46  1  0     0  0
 23 47  1  0     0  0
 24 25  1  0     0  0
 24 48  1  0     0  0
 24 49  1  0     0  0
 25 50  1  0     0  0
 25 51  1  0     0  0
 25 52  1  0     0  0
M  END
> <Smiles>
CCCNCC(O)COc1ccccc1C(=O)CCc1ccccc1

> <Name>
Propafenone

> <# Confs.>
25

> <Chembl_id>
CHEMBL631

> <prediction>
5.933530034717537

$$$$
