_Fluvoxamine
XXILIB    06242209073D 0   0.00000     0.00000

 43 43  0     1  0            999 V2000
    2.9064   -2.7820   -8.0270 F   0  0  0  0  0  1           0  0  0
    2.8018   -0.6351   -8.3273 F   0  0  0  0  0  1           0  0  0
    4.5696   -1.5198   -7.4226 F   0  0  0  0  0  1           0  0  0
   -0.6743   -1.3729   -0.6383 O   0  0  0  0  0  2           0  0  0
    4.7864    1.5474   -1.5165 O   0  0  0  0  0  2           0  0  0
   -0.2268   -1.6175   -1.9416 N   0  0  0  0  0  3           0  0  0
   -3.7020   -2.5212    1.1544 N   0  0  0  0  0  3           0  0  0
    2.6084   -1.4253   -6.0856 C   0  0  0  0  0  4           0  0  0
    1.4979   -1.1625   -3.5427 C   0  0  0  0  0  4           0  0  0
    1.8224   -2.4534   -5.5448 C   0  0  0  0  0  4           0  0  0
    2.8384   -0.2684   -5.3287 C   0  0  0  0  0  4           0  0  0
    1.2620   -2.3251   -4.2738 C   0  0  0  0  0  4           0  0  0
    2.2818   -0.1309   -4.0564 C   0  0  0  0  0  4           0  0  0
    3.2099   -1.5886   -7.4440 C   0  0  0  0  0  4           0  0  0
   -1.9069   -2.0581   -0.4543 C   0  0  0  0  0  4           0  0  0
    4.0594    1.5018   -0.2907 C   0  0  0  0  0  4           0  0  0
    5.0313    2.8859   -1.9277 C   0  0  0  0  0  4           0  0  0
    0.9031   -1.0193   -2.1857 C   0  0  0  0  0  4           0  0  0
   -2.4364   -1.8222    0.9541 C   0  0  0  0  0  4           0  0  0
    3.8129    0.0568    0.1229 C   0  0  0  0  0  4           0  0  0
    1.6271   -0.1746   -1.1727 C   0  0  0  0  0  4           0  0  0
    3.0112   -0.7449   -0.8971 C   0  0  0  0  0  4           0  0  0
   -4.0419   -2.3486    2.1112 H   0  0  0  0  0  1           0  0  0
   -3.5612   -3.5323    1.0171 H   0  0  0  0  0  1           0  0  0
    1.6511   -3.3442   -6.1123 H   0  0  0  0  0  1           0  0  0
    3.4459    0.5159   -5.7296 H   0  0  0  0  0  1           0  0  0
    0.6590   -3.1091   -3.8656 H   0  0  0  0  0  1           0  0  0
    2.4546    0.7554   -3.4825 H   0  0  0  0  0  1           0  0  0
   -1.7536   -3.1066   -0.6029 H   0  0  0  0  0  1           0  0  0
   -2.6209   -1.6977   -1.1651 H   0  0  0  0  0  1           0  0  0
    3.1199    1.9978   -0.4186 H   0  0  0  0  0  1           0  0  0
    4.6228    1.9965    0.4726 H   0  0  0  0  0  1           0  0  0
    5.5771    2.8820   -2.8480 H   0  0  0  0  0  1           0  0  0
    5.6021    3.3909   -1.1766 H   0  0  0  0  0  1           0  0  0
    4.0992    3.3922   -2.0679 H   0  0  0  0  0  1           0  0  0
   -1.7206   -2.1821    1.6632 H   0  0  0  0  0  1           0  0  0
   -2.5877   -0.7732    1.1011 H   0  0  0  0  0  1           0  0  0
    3.2767    0.0573    1.0489 H   0  0  0  0  0  1           0  0  0
    4.7601   -0.4217    0.2595 H   0  0  0  0  0  1           0  0  0
    1.0653   -0.1573   -0.2622 H   0  0  0  0  0  1           0  0  0
    1.7252    0.8218   -1.5502 H   0  0  0  0  0  1           0  0  0
    2.8980   -1.7431   -0.5286 H   0  0  0  0  0  1           0  0  0
    3.5578   -0.7640   -1.8167 H   0  0  0  0  0  1           0  0  0
  1 14  1  0     0  0
  2 14  1  0     0  0
  3 14  1  0     0  0
  4  6  1  0     0  0
  4 15  1  0     0  0
  5 16  1  0     0  0
  5 17  1  0     0  0
  6 18  2  0     0  0
  7 19  1  0     0  0
  7 23  1  0     0  0
  7 24  1  0     0  0
  8 10  2  0     0  0
  8 11  1  0     0  0
  8 14  1  0     0  0
  9 12  2  0     0  0
  9 13  1  0     0  0
  9 18  1  0     0  0
 10 12  1  0     0  0
 10 25  1  0     0  0
 11 13  2  0     0  0
 11 26  1  0     0  0
 12 27  1  0     0  0
 13 28  1  0     0  0
 15 19  1  0     0  0
 15 29  1  0     0  0
 15 30  1  0     0  0
 16 20  1  0     0  0
 16 31  1  0     0  0
 16 32  1  0     0  0
 17 33  1  0     0  0
 17 34  1  0     0  0
 17 35  1  0     0  0
 18 21  1  0     0  0
 19 36  1  0     0  0
 19 37  1  0     0  0
 20 22  1  0     0  0
 20 38  1  0     0  0
 20 39  1  0     0  0
 21 22  1  0     0  0
 21 40  1  0     0  0
 21 41  1  0     0  0
 22 42  1  0     0  0
 22 43  1  0     0  0
M  END
> <Smiles>
COCCCC/C(=N\OCCN)c1ccc(C(F)(F)F)cc1

> <Name>
Fluvoxamine

> <# Confs.>
25

> <Chembl_id>
CHEMBL814

> <prediction>
5.3068220499562

$$$$
