_Cisapride
XXILIB    06242209073D 0   0.00000     0.00000

 61 63  0     1  0            999 V2000
    3.5841   -0.7285    5.7273 Cl  0  0  0  0  0  1           0  0  0
   -6.4322   -1.7287   -9.5831 F   0  0  0  0  0  1           0  0  0
   -2.8170   -3.8066   -6.0129 O   0  0  0  0  0  2           0  0  0
   -0.6000   -3.4307    2.5637 O   0  0  0  0  0  2           0  0  0
   -0.2918    0.5436    2.4135 O   0  0  0  0  0  2           0  0  0
   -3.1445   -2.2814    0.2468 O   0  0  0  0  0  2           0  0  0
    2.8389   -3.6650    5.9881 N   0  0  0  0  0  3           0  0  0
   -0.7328   -1.9560   -2.5423 N   0  0  0  0  0  3           0  0  0
   -0.5962   -1.3078    1.0597 N   0  0  0  0  0  3           0  0  0
    2.3530   -1.5654    4.8459 C   0  0  0  0  0  4           0  0  0
   -5.5402   -2.2088   -8.7051 C   0  0  0  0  0  4           0  0  0
    0.3521   -2.8541    3.3553 C   0  0  0  0  0  4           0  0  0
   -3.6858   -3.2026   -6.8771 C   0  0  0  0  0  4           0  0  0
    2.0982   -2.9231    5.0761 C   0  0  0  0  0  4           0  0  0
    0.6075   -1.4855    3.1663 C   0  0  0  0  0  4           0  0  0
    1.6150   -0.8483    3.9014 C   0  0  0  0  0  4           0  0  0
   -5.4256   -3.5824   -8.5265 C   0  0  0  0  0  4           0  0  0
   -4.7412   -1.3252   -7.9867 C   0  0  0  0  0  4           0  0  0
    1.1028   -3.5558    4.3120 C   0  0  0  0  0  4           0  0  0
   -4.4955   -4.0776   -7.6133 C   0  0  0  0  0  4           0  0  0
   -3.8116   -1.8218   -7.0702 C   0  0  0  0  0  4           0  0  0
   -0.1302   -0.6533    2.1870 C   0  0  0  0  0  4           0  0  0
   -2.3315   -1.5772   -0.6875 C   0  0  0  0  0  4           0  0  0
   -1.9873   -2.9229   -5.2579 C   0  0  0  0  0  4           0  0  0
   -0.8227   -4.8201    2.7933 C   0  0  0  0  0  4           0  0  0
   -3.9221   -1.4157    1.0644 C   0  0  0  0  0  4           0  0  0
   -1.3372   -0.6307    0.0115 C   0  0  0  0  0  4           0  0  0
   -1.6056   -2.6113   -1.5621 C   0  0  0  0  0  4           0  0  0
   -0.1371   -2.9105   -3.4800 C   0  0  0  0  0  4           0  0  0
    0.2769   -1.1112   -1.8929 C   0  0  0  0  0  4           0  0  0
   -1.0845   -3.7481   -4.3503 C   0  0  0  0  0  4           0  0  0
   -0.3804   -0.0311   -1.0261 C   0  0  0  0  0  4           0  0  0
    3.6007   -3.2178    6.5178 H   0  0  0  0  0  1           0  0  0
    2.6262   -4.6622    6.1343 H   0  0  0  0  0  1           0  0  0
   -0.4094   -2.3158    0.9608 H   0  0  0  0  0  1           0  0  0
    1.8197    0.1894    3.7392 H   0  0  0  0  0  1           0  0  0
   -6.0451   -4.2533   -9.0842 H   0  0  0  0  0  1           0  0  0
   -4.8383   -0.2701   -8.1356 H   0  0  0  0  0  1           0  0  0
    0.9124   -4.5978    4.4630 H   0  0  0  0  0  1           0  0  0
   -4.3993   -5.1341   -7.4737 H   0  0  0  0  0  1           0  0  0
   -3.1950   -1.1461   -6.5151 H   0  0  0  0  0  1           0  0  0
   -2.9659   -0.9844   -1.3128 H   0  0  0  0  0  1           0  0  0
   -2.5986   -2.2759   -4.6642 H   0  0  0  0  0  1           0  0  0
   -1.3884   -2.3366   -5.9231 H   0  0  0  0  0  1           0  0  0
   -1.5816   -5.1745    2.1274 H   0  0  0  0  0  1           0  0  0
   -1.1382   -4.9683    3.8049 H   0  0  0  0  0  1           0  0  0
    0.0845   -5.3602    2.6198 H   0  0  0  0  0  1           0  0  0
   -4.5094   -1.9982    1.7431 H   0  0  0  0  0  1           0  0  0
   -4.5687   -0.8277    0.4472 H   0  0  0  0  0  1           0  0  0
   -3.2731   -0.7698    1.6181 H   0  0  0  0  0  1           0  0  0
   -1.8926    0.1661    0.4603 H   0  0  0  0  0  1           0  0  0
   -1.0132   -3.2446   -0.9352 H   0  0  0  0  0  1           0  0  0
   -2.3319   -3.2015   -2.0807 H   0  0  0  0  0  1           0  0  0
    0.4559   -3.5925   -2.9070 H   0  0  0  0  0  1           0  0  0
    0.4959   -2.3557   -4.1406 H   0  0  0  0  0  1           0  0  0
    0.8741   -0.6398   -2.6452 H   0  0  0  0  0  1           0  0  0
    0.8997   -1.7238   -1.2750 H   0  0  0  0  0  1           0  0  0
   -0.4932   -4.3958   -4.9633 H   0  0  0  0  0  1           0  0  0
   -1.7034   -4.3351   -3.7044 H   0  0  0  0  0  1           0  0  0
    0.3850    0.5150   -0.5153 H   0  0  0  0  0  1           0  0  0
   -0.9301    0.6332   -1.6597 H   0  0  0  0  0  1           0  0  0
  1 10  1  0     0  0
  2 11  1  0     0  0
  3 13  1  0     0  0
  3 24  1  0     0  0
  4 12  1  0     0  0
  4 25  1  0     0  0
  5 22  2  0     0  0
  6 23  1  0     0  0
  6 26  1  0     0  0
  7 14  1  0     0  0
  7 33  1  0     0  0
  7 34  1  0     0  0
  8 28  1  0     0  0
  8 29  1  0     0  0
  8 30  1  0     0  0
  9 22  1  0     0  0
  9 27  1  0     0  0
  9 35  1  0     0  0
 10 14  2  0     0  0
 10 16  1  0     0  0
 11 17  2  0     0  0
 11 18  1  0     0  0
 12 15  1  0     0  0
 12 19  2  0     0  0
 13 20  2  0     0  0
 13 21  1  0     0  0
 14 19  1  0     0  0
 15 16  2  0     0  0
 15 22  1  0     0  0
 16 36  1  0     0  0
 17 20  1  0     0  0
 17 37  1  0     0  0
 18 21  2  0     0  0
 18 38  1  0     0  0
 19 39  1  0     0  0
 20 40  1  0     0  0
 21 41  1  0     0  0
 23 27  1  0     0  0
 23 28  1  0     0  0
 23 42  1  0     0  0
 24 31  1  0     0  0
 24 43  1  0     0  0
 24 44  1  0     0  0
 25 45  1  0     0  0
 25 46  1  0     0  0
 25 47  1  0     0  0
 26 48  1  0     0  0
 26 49  1  0     0  0
 26 50  1  0     0  0
 27 32  1  0     0  0
 27 51  1  0     0  0
 28 52  1  0     0  0
 28 53  1  0     0  0
 29 31  1  0     0  0
 29 54  1  0     0  0
 29 55  1  0     0  0
 30 32  1  0     0  0
 30 56  1  0     0  0
 30 57  1  0     0  0
 31 58  1  0     0  0
 31 59  1  0     0  0
 32 60  1  0     0  0
 32 61  1  0     0  0
M  END
> <Smiles>
COc1cc(N)c(Cl)cc1C(=O)NC1CCN(CCCOc2ccc(F)cc2)CC1OC

> <Name>
Cisapride

> <# Confs.>
25

> <Chembl_id>
CHEMBL1729

> <prediction>
5.6272400295543274

$$$$
