0
  CDPL    08252113263D 1   1.00000     0.00000

 31 33  0     0  0            999 V2000
    0.0000    0.0000    0.0000 I   0  0  0  0  0  1           0  0  0
    0.0000    0.0000    0.0000 C   0  0  0  0  0  4           0  0  0
    0.0000    0.0000    0.0000 C   0  0  0  0  0  4           0  0  0
    0.0000    0.0000    0.0000 O   0  0  0  0  0  2           0  0  0
    0.0000    0.0000    0.0000 C   0  0  0  0  0  4           0  0  0
    0.0000    0.0000    0.0000 C   0  0  0  0  0  4           0  0  0
    0.0000    0.0000    0.0000 N   0  0  0  0  0  3           0  0  0
    0.0000    0.0000    0.0000 C   0  0  0  0  0  4           0  0  0
    0.0000    0.0000    0.0000 C   0  0  0  0  0  4           0  0  0
    0.0000    0.0000    0.0000 C   0  0  0  0  0  4           0  0  0
    0.0000    0.0000    0.0000 C   0  0  0  0  0  4           0  0  0
    0.0000    0.0000    0.0000 C   0  0  0  0  0  4           0  0  0
    0.0000    0.0000    0.0000 I   0  0  0  0  0  1           0  0  0
    0.0000    0.0000    0.0000 C   0  0  0  0  0  4           0  0  0
    0.0000    0.0000    0.0000 C   0  0  0  0  0  4           0  0  0
    0.0000    0.0000    0.0000 C   0  0  0  0  0  4           0  0  0
    0.0000    0.0000    0.0000 C   0  0  0  0  0  4           0  0  0
    0.0000    0.0000    0.0000 C   0  0  0  0  0  4           0  0  0
    0.0000    0.0000    0.0000 C   0  0  0  0  0  4           0  0  0
    0.0000    0.0000    0.0000 C   0  0  0  0  0  4           0  0  0
    0.0000    0.0000    0.0000 C   0  0  0  0  0  4           0  0  0
    0.0000    0.0000    0.0000 C   0  0  0  0  0  4           0  0  0
    0.0000    0.0000    0.0000 O   0  0  0  0  0  2           0  0  0
    0.0000    0.0000    0.0000 C   0  0  0  0  0  4           0  0  0
    0.0000    0.0000    0.0000 C   0  0  0  0  0  4           0  0  0
    0.0000    0.0000    0.0000 C   0  0  0  0  0  4           0  0  0
    0.0000    0.0000    0.0000 C   0  0  0  0  0  4           0  0  0
    0.0000    0.0000    0.0000 C   0  0  0  0  0  4           0  0  0
    0.0000    0.0000    0.0000 C   0  0  0  0  0  4           0  0  0
    0.0000    0.0000    0.0000 O   0  0  0  0  0  2           0  0  0
    0.0000    0.0000    0.0000 C   0  0  0  0  0  4           0  0  0
  1  2  1  0     0  0
  2  3  2  0     0  0
  3  4  1  0     0  0
  4  5  1  0     0  0
  5  6  1  0     0  0
  6  7  1  0     0  0
  7  8  1  0     0  0
  8  9  1  0     0  0
  7 10  1  0     0  0
 10 11  1  0     0  0
  3 12  1  0     0  0
 12 13  1  0     0  0
 12 14  2  0     0  0
 14 15  1  0     0  0
 15 16  1  0     0  0
 16 17  1  0     0  0
 17 18  2  0     0  0
 18 19  1  0     0  0
 19 20  1  0     0  0
 20 21  1  0     0  0
 21 22  1  0     0  0
 18 23  1  0     0  0
 23 24  1  0     0  0
 17 25  1  0     0  0
 24 25  2  0     0  0
 25 26  1  0     0  0
 26 27  2  0     0  0
 27 28  1  0     0  0
 24 29  1  0     0  0
 28 29  2  0     0  0
 16 30  2  0     0  0
  2 31  1  0     0  0
 15 31  2  0     0  0
M  END
> <Compound>
Amiodarone

> <canonical_smiles>
IC1=C(OCCN(CC)CC)C(I)=CC(C(C2=C(CCCC)OC3=C2C=CC=C3)=O)=C1

> <standard_type>
pIC50

> <standard_units>
uM

> <standard_relation>
=

> <actual_activity_value>
0.15490195998574313

> <predicted_activity_value>
nan

> <Publication_ID>
Garg_2008

$$$$
1
  CDPL    08252113263D 1   1.00000     0.00000

 21 23  0     0  0            999 V2000
    0.0000    0.0000    0.0000 C   0  0  0  0  0  4           0  0  0
    0.0000    0.0000    0.0000 C   0  0  0  0  0  4           0  0  0
    0.0000    0.0000    0.0000 C   0  0  0  0  0  4           0  0  0
    0.0000    0.0000    0.0000 C   0  0  0  0  0  4           0  0  0
    0.0000    0.0000    0.0000 C   0  0  0  0  0  4           0  0  0
    0.0000    0.0000    0.0000 C   0  0  0  0  0  4           0  0  0
    0.0000    0.0000    0.0000 C   0  0  0  0  0  4           0  0  0
    0.0000    0.0000    0.0000 C   0  0  0  0  0  4           0  0  0
    0.0000    0.0000    0.0000 C   0  0  0  0  0  4           0  0  0
    0.0000    0.0000    0.0000 C   0  0  0  0  0  4           0  0  0
    0.0000    0.0000    0.0000 C   0  0  0  0  0  4           0  0  0
    0.0000    0.0000    0.0000 C   0  0  0  0  0  4           0  0  0
    0.0000    0.0000    0.0000 C   0  0  0  0  0  4           0  0  0
    0.0000    0.0000    0.0000 C   0  0  0  0  0  4           0  0  0
    0.0000    0.0000    0.0000 C   0  0  0  0  0  4           0  0  0
    0.0000    0.0000    0.0000 C   0  0  0  0  0  4           0  0  0
    0.0000    0.0000    0.0000 N   0  0  0  0  0  3           0  0  0
    0.0000    0.0000    0.0000 C   0  0  0  0  0  4           0  0  0
    0.0000    0.0000    0.0000 C   0  0  0  0  0  4           0  0  0
    0.0000    0.0000    0.0000 C   0  0  0  0  0  4           0  0  0
    0.0000    0.0000    0.0000 C   0  0  0  0  0  4           0  0  0
  1  2  2  0     0  0
  2  3  1  0     0  0
  3  4  2  0     0  0
  4  5  1  0     0  0
  5  6  1  0     0  0
  6  7  2  0     0  0
  7  8  1  0     0  0
  8  9  2  0     0  0
  9 10  1  0     0  0
  6 11  1  0     0  0
 10 11  2  0     0  0
  7 12  1  0     0  0
  3 13  1  0     0  0
 12 13  1  0     0  0
  5 14  2  0     0  0
 14 15  1  0     0  0
 15 16  1  0     0  0
 16 17  1  0     0  0
 17 18  1  0     0  0
 17 19  1  0     0  0
  4 20  1  0     0  0
  1 21  1  0     0  0
 20 21  2  0     0  0
M  END
> <Compound>
Amitryptiline

> <canonical_smiles>
c3cc2c(/C(c1c(cccc1)CC2)=C\CCN(C)C)cc3

> <standard_type>
pIC50

> <standard_units>
uM

> <standard_relation>
=

> <actual_activity_value>
-1.0

> <predicted_activity_value>
nan

> <Publication_ID>
nan

$$$$
2
  CDPL    08252113263D 1   1.00000     0.00000

 34 38  0     0  0            999 V2000
    0.0000    0.0000    0.0000 F   0  0  0  0  0  1           0  0  0
    0.0000    0.0000    0.0000 C   0  0  0  0  0  4           0  0  0
    0.0000    0.0000    0.0000 C   0  0  0  0  0  4           0  0  0
    0.0000    0.0000    0.0000 C   0  0  0  0  0  4           0  0  0
    0.0000    0.0000    0.0000 C   0  0  0  0  0  4           0  0  0
    0.0000    0.0000    0.0000 C   0  0  0  0  0  4           0  0  0
    0.0000    0.0000    0.0000 C   0  0  0  0  0  4           0  0  0
    0.0000    0.0000    0.0000 C   0  0  0  0  0  4           0  0  0
    0.0000    0.0000    0.0000 N   0  0  0  0  0  3           0  0  0
    0.0000    0.0000    0.0000 C   0  0  0  0  0  4           0  0  0
    0.0000    0.0000    0.0000 N   0  0  0  0  0  3           0  0  0
    0.0000    0.0000    0.0000 C   0  0  0  0  0  4           0  0  0
    0.0000    0.0000    0.0000 C   0  0  0  0  0  4           0  0  0
    0.0000    0.0000    0.0000 C   0  0  0  0  0  4           0  0  0
    0.0000    0.0000    0.0000 N   0  0  0  0  0  3           0  0  0
    0.0000    0.0000    0.0000 C   0  0  0  0  0  4           0  0  0
    0.0000    0.0000    0.0000 C   0  0  0  0  0  4           0  0  0
    0.0000    0.0000    0.0000 C   0  0  0  0  0  4           0  0  0
    0.0000    0.0000    0.0000 C   0  0  0  0  0  4           0  0  0
    0.0000    0.0000    0.0000 C   0  0  0  0  0  4           0  0  0
    0.0000    0.0000    0.0000 C   0  0  0  0  0  4           0  0  0
    0.0000    0.0000    0.0000 O   0  0  0  0  0  2           0  0  0
    0.0000    0.0000    0.0000 C   0  0  0  0  0  4           0  0  0
    0.0000    0.0000    0.0000 C   0  0  0  0  0  4           0  0  0
    0.0000    0.0000    0.0000 C   0  0  0  0  0  4           0  0  0
    0.0000    0.0000    0.0000 C   0  0  0  0  0  4           0  0  0
    0.0000    0.0000    0.0000 C   0  0  0  0  0  4           0  0  0
    0.0000    0.0000    0.0000 N   0  0  0  0  0  3           0  0  0
    0.0000    0.0000    0.0000 C   0  0  0  0  0  4           0  0  0
    0.0000    0.0000    0.0000 C   0  0  0  0  0  4           0  0  0
    0.0000    0.0000    0.0000 C   0  0  0  0  0  4           0  0  0
    0.0000    0.0000    0.0000 C   0  0  0  0  0  4           0  0  0
    0.0000    0.0000    0.0000 C   0  0  0  0  0  4           0  0  0
    0.0000    0.0000    0.0000 C   0  0  0  0  0  4           0  0  0
  1  2  1  0     0  0
  2  3  1  0     0  0
  3  4  2  0     0  0
  2  5  2  0     0  0
  5  6  1  0     0  0
  4  7  1  0     0  0
  6  7  2  0     0  0
  7  8  1  0     0  0
  8  9  1  0     0  0
  9 10  1  0     0  0
 10 11  1  0     0  0
 11 12  1  0     0  0
 12 13  1  0     0  0
 13 14  1  0     0  0
 14 15  1  0     0  0
 15 16  1  0     0  0
 16 17  1  0     0  0
 17 18  1  0     0  0
 18 19  2  0     0  0
 19 20  1  0     0  0
 20 21  2  0     0  0
 21 22  1  0     0  0
 22 23  1  0     0  0
 21 24  1  0     0  0
 18 25  1  0     0  0
 24 25  2  0     0  0
 15 26  1  0     0  0
 12 27  1  0     0  0
 26 27  1  0     0  0
 10 28  2  0     0  0
 28 29  1  0     0  0
 29 30  2  0     0  0
 30 31  1  0     0  0
 31 32  2  0     0  0
 32 33  1  0     0  0
 29 34  1  0     0  0
  9 34  1  0     0  0
 33 34  2  0     0  0
M  END
> <Compound>
Astemizole

> <canonical_smiles>
FC(C=C1)=CC=C1CN2C(NC3CCN(CCC4=CC=C(OC)C=C4)CC3)=NC5=CC=CC=C52

> <standard_type>
pIC50

> <standard_units>
uM

> <standard_relation>
=

> <actual_activity_value>
2.0457574905606752

> <predicted_activity_value>
nan

> <Publication_ID>
nan

$$$$
3
  CDPL    08252113263D 1   1.00000     0.00000

 32 35  0     0  0            999 V2000
    0.0000    0.0000    0.0000 O   0  0  0  0  0  2           0  0  0
    0.0000    0.0000    0.0000 C   0  0  0  0  0  4           0  0  0
    0.0000    0.0000    0.0000 N   0  0  0  0  0  3           0  0  0
    0.0000    0.0000    0.0000 N   0  0  0  0  0  3           0  0  0
    0.0000    0.0000    0.0000 C   0  0  0  0  0  4           0  0  0
    0.0000    0.0000    0.0000 C   0  0  0  0  0  4           0  0  0
    0.0000    0.0000    0.0000 C   0  0  0  0  0  4           0  0  0
    0.0000    0.0000    0.0000 C   0  0  0  0  0  4           0  0  0
    0.0000    0.0000    0.0000 C   0  0  0  0  0  4           0  0  0
    0.0000    0.0000    0.0000 C   0  0  0  0  0  4           0  0  0
    0.0000    0.0000    0.0000 C   0  0  0  0  0  4           0  0  0
    0.0000    0.0000    0.0000 C   0  0  0  0  0  4           0  0  0
    0.0000    0.0000    0.0000 C   0  0  0  0  0  4           0  0  0
    0.0000    0.0000    0.0000 C   0  0  0  0  0  4           0  0  0
    0.0000    0.0000    0.0000 C   0  0  0  0  0  4           0  0  0
    0.0000    0.0000    0.0000 Cl  0  0  0  0  0  1           0  0  0
    0.0000    0.0000    0.0000 O   0  0  0  0  0  2           0  0  0
    0.0000    0.0000    0.0000 N   0  0  0  0  0  3           0  0  0
    0.0000    0.0000    0.0000 C   0  0  0  0  0  4           0  0  0
    0.0000    0.0000    0.0000 C   0  0  0  0  0  4           0  0  0
    0.0000    0.0000    0.0000 C   0  0  0  0  0  4           0  0  0
    0.0000    0.0000    0.0000 C   0  0  0  0  0  4           0  0  0
    0.0000    0.0000    0.0000 N   0  0  0  0  0  3           0  0  0
    0.0000    0.0000    0.0000 C   0  0  0  0  0  4           0  0  0
    0.0000    0.0000    0.0000 C   0  0  0  0  0  4           0  0  0
    0.0000    0.0000    0.0000 N   0  0  0  0  0  3           0  0  0
    0.0000    0.0000    0.0000 C   0  0  0  0  0  4           0  0  0
    0.0000    0.0000    0.0000 C   0  0  0  0  0  4           0  0  0
    0.0000    0.0000    0.0000 C   0  0  0  0  0  4           0  0  0
    0.0000    0.0000    0.0000 C   0  0  0  0  0  4           0  0  0
    0.0000    0.0000    0.0000 C   0  0  0  0  0  4           0  0  0
    0.0000    0.0000    0.0000 O   0  0  0  0  0  2           0  0  0
  1  2  2  0     0  0
  2  3  1  0     0  0
  3  4  1  0     0  0
  4  5  2  0     0  0
  5  6  1  0     0  0
  6  7  2  0     0  0
  7  8  1  0     0  0
  8  9  2  0     0  0
  9 10  1  0     0  0
 10 11  1  0     0  0
 11 12  2  0     0  0
 10 13  2  0     0  0
 13 14  1  0     0  0
 12 15  1  0     0  0
 14 15  2  0     0  0
 15 16  1  0     0  0
  6 17  1  0     0  0
  9 17  1  0     0  0
  2 18  1  0     0  0
 18 19  1  0     0  0
 19 20  1  0     0  0
 20 21  1  0     0  0
 21 22  1  0     0  0
 22 23  1  0     0  0
 23 24  1  0     0  0
 24 25  1  0     0  0
 25 26  1  0     0  0
 26 27  1  0     0  0
 26 28  1  0     0  0
 23 29  1  0     0  0
 28 29  1  0     0  0
 18 30  1  0     0  0
  3 31  1  0     0  0
 30 31  1  0     0  0
 30 32  2  0     0  0
M  END
> <Compound>
Azimilide

> <canonical_smiles>
O=C(N1/N=C/C2=CC=C(C(C=C3)=CC=C3Cl)O2)N(CCCCN4CCN(C)CC4)C(C1)=O

> <standard_type>
pIC50

> <standard_units>
uM

> <standard_relation>
=

> <actual_activity_value>
0.25181197299379954

> <predicted_activity_value>
nan

> <Publication_ID>
nan

$$$$
4
  CDPL    08252113263D 1   1.00000     0.00000

 27 29  0     0  0            999 V2000
    0.0000    0.0000    0.0000 C   0  0  0  0  0  4           0  0  0
    0.0000    0.0000    0.0000 C   0  0  0  0  0  4           0  0  0
    0.0000    0.0000    0.0000 C   0  0  0  0  0  4           0  0  0
    0.0000    0.0000    0.0000 C   0  0  0  0  0  4           0  0  0
    0.0000    0.0000    0.0000 O   0  0  0  0  0  2           0  0  0
    0.0000    0.0000    0.0000 C   0  0  0  0  0  4           0  0  0
    0.0000    0.0000    0.0000 C   0  0  0  0  0  4           0  0  0
    0.0000    0.0000    0.0000 C   0  0  0  0  0  4           0  0  0
    0.0000    0.0000    0.0000 N   0  0  0  0  0  3           0  0  0
    0.0000    0.0000    0.0000 C   0  0  0  0  0  4           0  0  0
    0.0000    0.0000    0.0000 C   0  0  0  0  0  4           0  0  0
    0.0000    0.0000    0.0000 C   0  0  0  0  0  4           0  0  0
    0.0000    0.0000    0.0000 C   0  0  0  0  0  4           0  0  0
    0.0000    0.0000    0.0000 C   0  0  0  0  0  4           0  0  0
    0.0000    0.0000    0.0000 C   0  0  0  0  0  4           0  0  0
    0.0000    0.0000    0.0000 C   0  0  0  0  0  4           0  0  0
    0.0000    0.0000    0.0000 C   0  0  0  0  0  4           0  0  0
    0.0000    0.0000    0.0000 C   0  0  0  0  0  4           0  0  0
    0.0000    0.0000    0.0000 C   0  0  0  0  0  4           0  0  0
    0.0000    0.0000    0.0000 C   0  0  0  0  0  4           0  0  0
    0.0000    0.0000    0.0000 C   0  0  0  0  0  4           0  0  0
    0.0000    0.0000    0.0000 C   0  0  0  0  0  4           0  0  0
    0.0000    0.0000    0.0000 N   0  0  0  0  0  3           0  0  0
    0.0000    0.0000    0.0000 C   0  0  0  0  0  4           0  0  0
    0.0000    0.0000    0.0000 C   0  0  0  0  0  4           0  0  0
    0.0000    0.0000    0.0000 C   0  0  0  0  0  4           0  0  0
    0.0000    0.0000    0.0000 C   0  0  0  0  0  4           0  0  0
  1  2  1  0     0  0
  2  3  1  0     0  0
  2  4  1  0     0  0
  4  5  1  0     0  0
  5  6  1  0     0  0
  6  7  1  0     0  0
  7  8  1  0     0  0
  8  9  1  0     0  0
  9 10  1  0     0  0
 10 11  1  0     0  0
 11 12  2  0     0  0
 12 13  1  0     0  0
 13 14  2  0     0  0
 14 15  1  0     0  0
 11 16  1  0     0  0
 15 16  2  0     0  0
  9 17  1  0     0  0
 17 18  2  0     0  0
 18 19  1  0     0  0
 19 20  2  0     0  0
 20 21  1  0     0  0
 17 22  1  0     0  0
 21 22  2  0     0  0
  7 23  1  0     0  0
 23 24  1  0     0  0
 24 25  1  0     0  0
 25 26  1  0     0  0
 23 27  1  0     0  0
 26 27  1  0     0  0
M  END
> <Compound>
Bepridil

> <canonical_smiles>
CC(C)COCC(CN(CC1=CC=CC=C1)C2=CC=CC=C2)N3CCCC3

> <standard_type>
pIC50

> <standard_units>
uM

> <standard_relation>
=

> <actual_activity_value>
0.2596373105057561

> <predicted_activity_value>
nan

> <Publication_ID>
nan

$$$$
5
  CDPL    08252113263D 1   1.00000     0.00000

 22 23  0     0  0            999 V2000
    0.0000    0.0000    0.0000 C   0  0  0  0  0  4           0  0  0
    0.0000    0.0000    0.0000 C   0  0  0  0  0  4           0  0  0
    0.0000    0.0000    0.0000 C   0  0  0  0  0  4           0  0  0
    0.0000    0.0000    0.0000 C   0  0  0  0  0  4           0  0  0
    0.0000    0.0000    0.0000 C   0  0  0  0  0  4           0  0  0
    0.0000    0.0000    0.0000 N   0  0  0  0  0  3           0  0  0
    0.0000    0.0000    0.0000 C   0  0  0  0  0  4           0  0  0
    0.0000    0.0000    0.0000 C   0  0  0  0  0  4           0  0  0
    0.0000    0.0000    0.0000 C   0  0  0  0  0  4           0  0  0
    0.0000    0.0000    0.0000 C   0  0  0  0  0  4           0  0  0
    0.0000    0.0000    0.0000 N   0  0  0  0  0  3           0  0  0
    0.0000    0.0000    0.0000 C   0  0  0  0  0  4           0  0  0
    0.0000    0.0000    0.0000 C   0  0  0  0  0  4           0  0  0
    0.0000    0.0000    0.0000 C   0  0  0  0  0  4           0  0  0
    0.0000    0.0000    0.0000 N   0  0  0  0  0  3           0  0  0
    0.0000    0.0000    0.0000 C   0  0  0  0  0  4           0  0  0
    0.0000    0.0000    0.0000 C   0  0  0  0  0  4           0  0  0
    0.0000    0.0000    0.0000 C   0  0  0  0  0  4           0  0  0
    0.0000    0.0000    0.0000 Cl  0  0  0  0  0  1           0  0  0
    0.0000    0.0000    0.0000 C   0  0  0  0  0  4           0  0  0
    0.0000    0.0000    0.0000 C   0  0  0  0  0  4           0  0  0
    0.0000    0.0000    0.0000 C   0  0  0  0  0  4           0  0  0
  1  2  1  0     0  0
  2  3  1  0     0  0
  3  4  1  0     0  0
  4  5  1  0     0  0
  5  6  1  0     0  0
  6  7  1  0     0  0
  7  8  1  0     0  0
  6  9  1  0     0  0
  9 10  1  0     0  0
  2 11  1  0     0  0
 11 12  1  0     0  0
 12 13  2  0     0  0
 13 14  1  0     0  0
 14 15  2  0     0  0
 15 16  1  0     0  0
 16 17  2  0     0  0
 17 18  1  0     0  0
 18 19  1  0     0  0
 18 20  2  0     0  0
 20 21  1  0     0  0
 12 22  1  0     0  0
 16 22  1  0     0  0
 21 22  2  0     0  0
M  END
> <Compound>
Chloroquine

> <canonical_smiles>
CC(CCCN(CC)CC)NC1=CC=NC2=CC(Cl)=CC=C12

> <standard_type>
pIC50

> <standard_units>
uM

> <standard_relation>
=

> <actual_activity_value>
-0.3979400086720376

> <predicted_activity_value>
nan

> <Publication_ID>
nan

$$$$
6
  CDPL    08252113263D 1   1.00000     0.00000

 19 20  0     0  0            999 V2000
    0.0000    0.0000    0.0000 C   0  0  0  0  0  4           0  0  0
    0.0000    0.0000    0.0000 N   0  0  0  0  0  3           0  0  0
    0.0000    0.0000    0.0000 C   0  0  0  0  0  4           0  0  0
    0.0000    0.0000    0.0000 C   0  0  0  0  0  4           0  0  0
    0.0000    0.0000    0.0000 C   0  0  0  0  0  4           0  0  0
    0.0000    0.0000    0.0000 C   0  0  0  0  0  4           0  0  0
    0.0000    0.0000    0.0000 C   0  0  0  0  0  4           0  0  0
    0.0000    0.0000    0.0000 N   0  0  0  0  0  3           0  0  0
    0.0000    0.0000    0.0000 C   0  0  0  0  0  4           0  0  0
    0.0000    0.0000    0.0000 C   0  0  0  0  0  4           0  0  0
    0.0000    0.0000    0.0000 C   0  0  0  0  0  4           0  0  0
    0.0000    0.0000    0.0000 C   0  0  0  0  0  4           0  0  0
    0.0000    0.0000    0.0000 C   0  0  0  0  0  4           0  0  0
    0.0000    0.0000    0.0000 C   0  0  0  0  0  4           0  0  0
    0.0000    0.0000    0.0000 C   0  0  0  0  0  4           0  0  0
    0.0000    0.0000    0.0000 C   0  0  0  0  0  4           0  0  0
    0.0000    0.0000    0.0000 Cl  0  0  0  0  0  1           0  0  0
    0.0000    0.0000    0.0000 C   0  0  0  0  0  4           0  0  0
    0.0000    0.0000    0.0000 C   0  0  0  0  0  4           0  0  0
  1  2  1  0     0  0
  2  3  1  0     0  0
  2  4  1  0     0  0
  4  5  1  0     0  0
  5  6  1  0     0  0
  6  7  1  0     0  0
  7  8  2  0     0  0
  8  9  1  0     0  0
  9 10  2  0     0  0
 10 11  1  0     0  0
  7 12  1  0     0  0
 11 12  2  0     0  0
  6 13  1  0     0  0
 13 14  2  0     0  0
 14 15  1  0     0  0
 15 16  2  0     0  0
 16 17  1  0     0  0
 16 18  1  0     0  0
 13 19  1  0     0  0
 18 19  2  0     0  0
M  END
> <Compound>
Chlorpheniramine

> <canonical_smiles>
CN(C)CCC(C1=NC=CC=C1)C2=CC=C(Cl)C=C2

> <standard_type>
pIC50

> <standard_units>
uM

> <standard_relation>
=

> <actual_activity_value>
-0.2041199826559248

> <predicted_activity_value>
nan

> <Publication_ID>
nan

$$$$
7
  CDPL    08252113263D 1   1.00000     0.00000

 21 23  0     0  0            999 V2000
    0.0000    0.0000    0.0000 C   0  0  0  0  0  4           0  0  0
    0.0000    0.0000    0.0000 N   0  0  0  0  0  3           0  0  0
    0.0000    0.0000    0.0000 C   0  0  0  0  0  4           0  0  0
    0.0000    0.0000    0.0000 C   0  0  0  0  0  4           0  0  0
    0.0000    0.0000    0.0000 C   0  0  0  0  0  4           0  0  0
    0.0000    0.0000    0.0000 N   0  0  0  0  0  3           0  0  0
    0.0000    0.0000    0.0000 C   0  0  0  0  0  4           0  0  0
    0.0000    0.0000    0.0000 C   0  0  0  0  0  4           0  0  0
    0.0000    0.0000    0.0000 C   0  0  0  0  0  4           0  0  0
    0.0000    0.0000    0.0000 C   0  0  0  0  0  4           0  0  0
    0.0000    0.0000    0.0000 C   0  0  0  0  0  4           0  0  0
    0.0000    0.0000    0.0000 C   0  0  0  0  0  4           0  0  0
    0.0000    0.0000    0.0000 S   0  0  0  0  0  2           0  0  0
    0.0000    0.0000    0.0000 C   0  0  0  0  0  4           0  0  0
    0.0000    0.0000    0.0000 C   0  0  0  0  0  4           0  0  0
    0.0000    0.0000    0.0000 C   0  0  0  0  0  4           0  0  0
    0.0000    0.0000    0.0000 C   0  0  0  0  0  4           0  0  0
    0.0000    0.0000    0.0000 Cl  0  0  0  0  0  1           0  0  0
    0.0000    0.0000    0.0000 C   0  0  0  0  0  4           0  0  0
    0.0000    0.0000    0.0000 C   0  0  0  0  0  4           0  0  0
    0.0000    0.0000    0.0000 C   0  0  0  0  0  4           0  0  0
  1  2  1  0     0  0
  2  3  1  0     0  0
  3  4  1  0     0  0
  4  5  1  0     0  0
  5  6  1  0     0  0
  6  7  1  0     0  0
  7  8  2  0     0  0
  8  9  1  0     0  0
  9 10  2  0     0  0
 10 11  1  0     0  0
  7 12  1  0     0  0
 11 12  2  0     0  0
 12 13  1  0     0  0
 13 14  1  0     0  0
 14 15  2  0     0  0
 15 16  1  0     0  0
 16 17  2  0     0  0
 17 18  1  0     0  0
 17 19  1  0     0  0
 14 20  1  0     0  0
  6 20  1  0     0  0
 19 20  2  0     0  0
  2 21  1  0     0  0
M  END
> <Compound>
Chlorpromazine

> <canonical_smiles>
CN(CCCN1C2=CC=CC=C2SC3=CC=C(Cl)C=C31)C

> <standard_type>
pIC50

> <standard_units>
uM

> <standard_relation>
=

> <actual_activity_value>
-0.1673173347481761

> <predicted_activity_value>
nan

> <Publication_ID>
nan

$$$$
8
  CDPL    08252113263D 1   1.00000     0.00000

 24 27  0     0  0            999 V2000
    0.0000    0.0000    0.0000 O   0  0  0  0  0  2           0  0  0
    0.0000    0.0000    0.0000 C   0  0  0  0  0  4           0  0  0
    0.0000    0.0000    0.0000 O   0  0  0  0  0  2           0  0  0
    0.0000    0.0000    0.0000 C   0  0  0  0  0  4           0  0  0
    0.0000    0.0000    0.0000 C   0  0  0  0  0  4           0  0  0
    0.0000    0.0000    0.0000 N   0  0  0  0  0  3           0  0  0
    0.0000    0.0000    0.0000 C   0  0  0  0  0  4           0  0  0
    0.0000    0.0000    0.0000 C   0  0  0  0  0  4           0  0  0
    0.0000    0.0000    0.0000 C   0  0  0  0  0  4           0  0  0
    0.0000    0.0000    0.0000 N   0  0  0  0  0  3           0  0  0
    0.0000    0.0000    0.0000 C   0  0  0  0  0  4           0  0  0
    0.0000    0.0000    0.0000 C   0  0  0  0  0  4           0  0  0
    0.0000    0.0000    0.0000 N   0  0  0  0  0  3           0  0  0
    0.0000    0.0000    0.0000 C   0  0  0  0  0  4           0  0  0
    0.0000    0.0000    0.0000 C   0  0  0  0  0  4           0  0  0
    0.0000    0.0000    0.0000 C   0  0  0  0  0  4           0  0  0
    0.0000    0.0000    0.0000 F   0  0  0  0  0  1           0  0  0
    0.0000    0.0000    0.0000 C   0  0  0  0  0  4           0  0  0
    0.0000    0.0000    0.0000 C   0  0  0  0  0  4           0  0  0
    0.0000    0.0000    0.0000 C   0  0  0  0  0  4           0  0  0
    0.0000    0.0000    0.0000 O   0  0  0  0  0  2           0  0  0
    0.0000    0.0000    0.0000 C   0  0  0  0  0  4           0  0  0
    0.0000    0.0000    0.0000 C   0  0  0  0  0  4           0  0  0
    0.0000    0.0000    0.0000 C   0  0  0  0  0  4           0  0  0
  1  2  2  0     0  0
  2  3  1  0     0  0
  2  4  1  0     0  0
  4  5  2  0     0  0
  5  6  1  0     0  0
  6  7  1  0     0  0
  7  8  2  0     0  0
  8  9  1  0     0  0
  9 10  1  0     0  0
 10 11  1  0     0  0
 11 12  1  0     0  0
 12 13  1  0     0  0
 13 14  1  0     0  0
 10 15  1  0     0  0
 14 15  1  0     0  0
  9 16  2  0     0  0
 16 17  1  0     0  0
 16 18  1  0     0  0
  7 19  1  0     0  0
 18 19  2  0     0  0
  4 20  1  0     0  0
 19 20  1  0     0  0
 20 21  2  0     0  0
  6 22  1  0     0  0
 22 23  1  0     0  0
 22 24  1  0     0  0
 23 24  1  0     0  0
M  END
> <Compound>
Ciprofloxacin

> <canonical_smiles>
O=C(O)C1=CN(C2=CC(N3CCNCC3)=C(F)C=C2C1=O)C4CC4

> <standard_type>
pIC50

> <standard_units>
uM

> <standard_relation>
=

> <actual_activity_value>
-2.9849771264154934

> <predicted_activity_value>
nan

> <Publication_ID>
nan

$$$$
9
  CDPL    08252113263D 1   1.00000     0.00000

 32 34  0     0  0            999 V2000
    0.0000    0.0000    0.0000 O   0  0  0  0  0  2           0  0  0
    0.0000    0.0000    0.0000 C   0  0  0  0  0  4           0  0  0
    0.0000    0.0000    0.0000 C   0  0  0  0  0  4           0  0  0
    0.0000    0.0000    0.0000 C   0  0  0  0  0  4           0  0  0
    0.0000    0.0000    0.0000 O   0  0  0  0  0  2           0  0  0
    0.0000    0.0000    0.0000 C   0  0  0  0  0  4           0  0  0
    0.0000    0.0000    0.0000 C   0  0  0  0  0  4           0  0  0
    0.0000    0.0000    0.0000 C   0  0  0  0  0  4           0  0  0
    0.0000    0.0000    0.0000 N   0  0  0  0  0  3           0  0  0
    0.0000    0.0000    0.0000 C   0  0  0  0  0  4           0  0  0
    0.0000    0.0000    0.0000 Cl  0  0  0  0  0  1           0  0  0
    0.0000    0.0000    0.0000 C   0  0  0  0  0  4           0  0  0
    0.0000    0.0000    0.0000 N   0  0  0  0  0  3           0  0  0
    0.0000    0.0000    0.0000 C   0  0  1  0  0  4           0  0  0
    0.0000    0.0000    0.0000 C   0  0  2  0  0  4           0  0  0
    0.0000    0.0000    0.0000 C   0  0  0  0  0  4           0  0  0
    0.0000    0.0000    0.0000 N   0  0  0  0  0  3           0  0  0
    0.0000    0.0000    0.0000 C   0  0  0  0  0  4           0  0  0
    0.0000    0.0000    0.0000 C   0  0  0  0  0  4           0  0  0
    0.0000    0.0000    0.0000 C   0  0  0  0  0  4           0  0  0
    0.0000    0.0000    0.0000 C   0  0  0  0  0  4           0  0  0
    0.0000    0.0000    0.0000 C   0  0  0  0  0  4           0  0  0
    0.0000    0.0000    0.0000 O   0  0  0  0  0  2           0  0  0
    0.0000    0.0000    0.0000 C   0  0  0  0  0  4           0  0  0
    0.0000    0.0000    0.0000 C   0  0  0  0  0  4           0  0  0
    0.0000    0.0000    0.0000 C   0  0  0  0  0  4           0  0  0
    0.0000    0.0000    0.0000 C   0  0  0  0  0  4           0  0  0
    0.0000    0.0000    0.0000 F   0  0  0  0  0  1           0  0  0
    0.0000    0.0000    0.0000 C   0  0  0  0  0  4           0  0  0
    0.0000    0.0000    0.0000 C   0  0  0  0  0  4           0  0  0
    0.0000    0.0000    0.0000 O   0  0  0  0  0  2           0  0  0
    0.0000    0.0000    0.0000 C   0  0  0  0  0  4           0  0  0
  1  2  2  0     0  0
  2  3  1  0     0  0
  3  4  2  0     0  0
  4  5  1  0     0  0
  5  6  1  0     0  0
  4  7  1  0     0  0
  7  8  2  0     0  0
  8  9  1  0     0  0
  8 10  1  0     0  0
 10 11  1  0     0  0
  3 12  1  0     0  0
 10 12  2  0     0  0
  2 13  1  0     0  0
 13 14  1  0     0  0
 14 15  1  0     0  0
 15 16  1  0     0  0
 16 17  1  0     0  0
 17 18  1  0     0  0
 14 19  1  0     0  0
 18 19  1  0     0  0
 17 20  1  0     0  0
 20 21  1  0     0  0
 21 22  1  0     0  0
 22 23  1  0     0  0
 23 24  1  0     0  0
 24 25  2  0     0  0
 25 26  1  0     0  0
 26 27  2  0     0  0
 27 28  1  0     0  0
 27 29  1  0     0  0
 24 30  1  0     0  0
 29 30  2  0     0  0
 15 31  1  0     0  0
 31 32  1  0     0  0
M  END
> <Compound>
Cisapride

> <canonical_smiles>
O=C(C1=C(OC)C=C(N)C(Cl)=C1)N[C@H]2[C@H](CN(CC2)CCCOC3=CC=C(F)C=C3)OC

> <standard_type>
pIC50

> <standard_units>
uM

> <standard_relation>
=

> <actual_activity_value>
2.154901959985743

> <predicted_activity_value>
nan

> <Publication_ID>
nan

$$$$
10
  CDPL    08252113263D 1   1.00000     0.00000

 23 26  0     0  0            999 V2000
    0.0000    0.0000    0.0000 Cl  0  0  0  0  0  1           0  0  0
    0.0000    0.0000    0.0000 C   0  0  0  0  0  4           0  0  0
    0.0000    0.0000    0.0000 C   0  0  0  0  0  4           0  0  0
    0.0000    0.0000    0.0000 C   0  0  0  0  0  4           0  0  0
    0.0000    0.0000    0.0000 C   0  0  0  0  0  4           0  0  0
    0.0000    0.0000    0.0000 C   0  0  0  0  0  4           0  0  0
    0.0000    0.0000    0.0000 N   0  0  0  0  0  3           0  0  0
    0.0000    0.0000    0.0000 C   0  0  0  0  0  4           0  0  0
    0.0000    0.0000    0.0000 N   0  0  0  0  0  3           0  0  0
    0.0000    0.0000    0.0000 C   0  0  0  0  0  4           0  0  0
    0.0000    0.0000    0.0000 C   0  0  0  0  0  4           0  0  0
    0.0000    0.0000    0.0000 C   0  0  0  0  0  4           0  0  0
    0.0000    0.0000    0.0000 C   0  0  0  0  0  4           0  0  0
    0.0000    0.0000    0.0000 C   0  0  0  0  0  4           0  0  0
    0.0000    0.0000    0.0000 C   0  0  0  0  0  4           0  0  0
    0.0000    0.0000    0.0000 C   0  0  0  0  0  4           0  0  0
    0.0000    0.0000    0.0000 N   0  0  0  0  0  3           0  0  0
    0.0000    0.0000    0.0000 C   0  0  0  0  0  4           0  0  0
    0.0000    0.0000    0.0000 C   0  0  0  0  0  4           0  0  0
    0.0000    0.0000    0.0000 N   0  0  0  0  0  3           0  0  0
    0.0000    0.0000    0.0000 C   0  0  0  0  0  4           0  0  0
    0.0000    0.0000    0.0000 C   0  0  0  0  0  4           0  0  0
    0.0000    0.0000    0.0000 C   0  0  0  0  0  4           0  0  0
  1  2  1  0     0  0
  2  3  1  0     0  0
  3  4  2  0     0  0
  2  5  2  0     0  0
  5  6  1  0     0  0
  6  7  1  0     0  0
  4  8  1  0     0  0
  6  8  2  0     0  0
  8  9  1  0     0  0
  9 10  2  0     0  0
 10 11  1  0     0  0
 11 12  2  0     0  0
 12 13  1  0     0  0
 13 14  2  0     0  0
 10 15  1  0     0  0
 14 15  1  0     0  0
  7 16  1  0     0  0
 15 16  2  0     0  0
 16 17  1  0     0  0
 17 18  1  0     0  0
 18 19  1  0     0  0
 19 20  1  0     0  0
 20 21  1  0     0  0
 20 22  1  0     0  0
 17 23  1  0     0  0
 22 23  1  0     0  0
M  END
> <Compound>
Clozapine

> <canonical_smiles>
ClC(C=C1)=CC(N2)=C1N=C3C=CC=CC3=C2N4CCN(C)CC4

> <standard_type>
pIC50

> <standard_units>
uM

> <standard_relation>
=

> <actual_activity_value>
0.494850021680094

> <predicted_activity_value>
nan

> <Publication_ID>
nan

$$$$
11
  CDPL    08252113263D 1   1.00000     0.00000

 24 27  0     0  0            999 V2000
    0.0000    0.0000    0.0000 Cl  0  0  0  0  0  1           0  0  0
    0.0000    0.0000    0.0000 C   0  0  0  0  0  4           0  0  0
    0.0000    0.0000    0.0000 C   0  0  0  0  0  4           0  0  0
    0.0000    0.0000    0.0000 C   0  0  0  0  0  4           0  0  0
    0.0000    0.0000    0.0000 C   0  0  0  0  0  4           0  0  0
    0.0000    0.0000    0.0000 C   0  0  0  0  0  4           0  0  0
    0.0000    0.0000    0.0000 N   0  0  0  0  0  3           0  0  0
    0.0000    0.0000    0.0000 O   0  0  0  0  0  2           0  0  0
    0.0000    0.0000    0.0000 C   0  0  0  0  0  4           0  0  0
    0.0000    0.0000    0.0000 N   0  0  0  0  0  3           0  0  0
    0.0000    0.0000    0.0000 C   0  0  0  0  0  4           0  0  0
    0.0000    0.0000    0.0000 C   0  0  0  0  0  4           0  0  0
    0.0000    0.0000    0.0000 C   0  0  0  0  0  4           0  0  0
    0.0000    0.0000    0.0000 C   0  0  0  0  0  4           0  0  0
    0.0000    0.0000    0.0000 C   0  0  0  0  0  4           0  0  0
    0.0000    0.0000    0.0000 C   0  0  0  0  0  4           0  0  0
    0.0000    0.0000    0.0000 C   0  0  0  0  0  4           0  0  0
    0.0000    0.0000    0.0000 N   0  0  0  0  0  3           0  0  0
    0.0000    0.0000    0.0000 C   0  0  0  0  0  4           0  0  0
    0.0000    0.0000    0.0000 C   0  0  0  0  0  4           0  0  0
    0.0000    0.0000    0.0000 N   0  0  0  0  0  3           0  0  0
    0.0000    0.0000    0.0000 C   0  0  0  0  0  4           0  0  0
    0.0000    0.0000    0.0000 C   0  0  0  0  0  4           0  0  0
    0.0000    0.0000    0.0000 C   0  0  0  0  0  4           0  0  0
  1  2  1  0     0  0
  2  3  1  0     0  0
  3  4  2  0     0  0
  2  5  2  0     0  0
  5  6  1  0     0  0
  6  7  1  0     0  0
  7  8  1  0     0  0
  4  9  1  0     0  0
  6  9  2  0     0  0
  9 10  1  0     0  0
 10 11  2  0     0  0
 11 12  1  0     0  0
 12 13  2  0     0  0
 13 14  1  0     0  0
 14 15  2  0     0  0
 11 16  1  0     0  0
 15 16  1  0     0  0
  7 17  1  0     0  0
 16 17  2  0     0  0
 17 18  1  0     0  0
 18 19  1  0     0  0
 19 20  1  0     0  0
 20 21  1  0     0  0
 21 22  1  0     0  0
 21 23  1  0     0  0
 18 24  1  0     0  0
 23 24  1  0     0  0
M  END
> <Compound>
Clozapine-N-oxide

> <canonical_smiles>
ClC(C=C1)=CC(N2O)=C1N=C3C=CC=CC3=C2N4CCN(C)CC4

> <standard_type>
pIC50

> <standard_units>
uM

> <standard_relation>
=

> <actual_activity_value>
-2.1248301494138593

> <predicted_activity_value>
nan

> <Publication_ID>
nan

$$$$
12
  CDPL    08252113263D 1   1.00000     0.00000

 20 22  0     0  0            999 V2000
    0.0000    0.0000    0.0000 C   0  0  0  0  0  4           0  0  0
    0.0000    0.0000    0.0000 N   0  0  0  0  0  3           0  0  0
    0.0000    0.0000    0.0000 C   0  0  0  0  0  4           0  0  0
    0.0000    0.0000    0.0000 C   0  0  0  0  0  4           0  0  0
    0.0000    0.0000    0.0000 C   0  0  0  0  0  4           0  0  0
    0.0000    0.0000    0.0000 N   0  0  0  0  0  3           0  0  0
    0.0000    0.0000    0.0000 C   0  0  0  0  0  4           0  0  0
    0.0000    0.0000    0.0000 C   0  0  0  0  0  4           0  0  0
    0.0000    0.0000    0.0000 C   0  0  0  0  0  4           0  0  0
    0.0000    0.0000    0.0000 C   0  0  0  0  0  4           0  0  0
    0.0000    0.0000    0.0000 C   0  0  0  0  0  4           0  0  0
    0.0000    0.0000    0.0000 C   0  0  0  0  0  4           0  0  0
    0.0000    0.0000    0.0000 C   0  0  0  0  0  4           0  0  0
    0.0000    0.0000    0.0000 C   0  0  0  0  0  4           0  0  0
    0.0000    0.0000    0.0000 C   0  0  0  0  0  4           0  0  0
    0.0000    0.0000    0.0000 C   0  0  0  0  0  4           0  0  0
    0.0000    0.0000    0.0000 C   0  0  0  0  0  4           0  0  0
    0.0000    0.0000    0.0000 C   0  0  0  0  0  4           0  0  0
    0.0000    0.0000    0.0000 C   0  0  0  0  0  4           0  0  0
    0.0000    0.0000    0.0000 C   0  0  0  0  0  4           0  0  0
  1  2  1  0     0  0
  2  3  1  0     0  0
  3  4  1  0     0  0
  4  5  1  0     0  0
  5  6  1  0     0  0
  6  7  1  0     0  0
  7  8  2  0     0  0
  8  9  1  0     0  0
  9 10  2  0     0  0
 10 11  1  0     0  0
  7 12  1  0     0  0
 11 12  2  0     0  0
  8 13  1  0     0  0
 13 14  1  0     0  0
 14 15  1  0     0  0
  6 16  1  0     0  0
 15 16  2  0     0  0
 16 17  1  0     0  0
 17 18  2  0     0  0
 18 19  1  0     0  0
 15 20  1  0     0  0
 19 20  2  0     0  0
M  END
> <Compound>
Desipramine

> <canonical_smiles>
CNCCCN1C2=C(C=CC=C2)CCC3=C1C=CC=C3

> <standard_type>
pIC50

> <standard_units>
uM

> <standard_relation>
=

> <actual_activity_value>
-0.14301480025409513

> <predicted_activity_value>
nan

> <Publication_ID>
nan

$$$$
13
  CDPL    08252113263D 1   1.00000     0.00000

 29 31  0     0  0            999 V2000
    0.0000    0.0000    0.0000 O   0  0  0  0  0  2           0  0  0
    0.0000    0.0000    0.0000 C   0  0  0  0  0  4           0  0  0
    0.0000    0.0000    0.0000 C   0  0  1  0  0  4           0  0  0
    0.0000    0.0000    0.0000 C   0  0  1  0  0  4           0  0  0
    0.0000    0.0000    0.0000 S   0  0  0  0  0  2           0  0  0
    0.0000    0.0000    0.0000 C   0  0  0  0  0  4           0  0  0
    0.0000    0.0000    0.0000 C   0  0  0  0  0  4           0  0  0
    0.0000    0.0000    0.0000 N   0  0  0  0  0  3           0  0  0
    0.0000    0.0000    0.0000 C   0  0  0  0  0  4           0  0  0
    0.0000    0.0000    0.0000 C   0  0  0  0  0  4           0  0  0
    0.0000    0.0000    0.0000 N   0  0  0  0  0  3           0  0  0
    0.0000    0.0000    0.0000 C   0  0  0  0  0  4           0  0  0
    0.0000    0.0000    0.0000 C   0  0  0  0  0  4           0  0  0
    0.0000    0.0000    0.0000 C   0  0  0  0  0  4           0  0  0
    0.0000    0.0000    0.0000 C   0  0  0  0  0  4           0  0  0
    0.0000    0.0000    0.0000 C   0  0  0  0  0  4           0  0  0
    0.0000    0.0000    0.0000 C   0  0  0  0  0  4           0  0  0
    0.0000    0.0000    0.0000 C   0  0  0  0  0  4           0  0  0
    0.0000    0.0000    0.0000 C   0  0  0  0  0  4           0  0  0
    0.0000    0.0000    0.0000 C   0  0  0  0  0  4           0  0  0
    0.0000    0.0000    0.0000 C   0  0  0  0  0  4           0  0  0
    0.0000    0.0000    0.0000 O   0  0  0  0  0  2           0  0  0
    0.0000    0.0000    0.0000 C   0  0  0  0  0  4           0  0  0
    0.0000    0.0000    0.0000 C   0  0  0  0  0  4           0  0  0
    0.0000    0.0000    0.0000 C   0  0  0  0  0  4           0  0  0
    0.0000    0.0000    0.0000 O   0  0  0  0  0  2           0  0  0
    0.0000    0.0000    0.0000 C   0  0  0  0  0  4           0  0  0
    0.0000    0.0000    0.0000 C   0  0  0  0  0  4           0  0  0
    0.0000    0.0000    0.0000 O   0  0  0  0  0  2           0  0  0
  1  2  2  0     0  0
  2  3  1  0     0  0
  3  4  1  0     0  0
  4  5  1  0     0  0
  5  6  1  0     0  0
  6  7  2  0     0  0
  2  8  1  0     0  0
  7  8  1  0     0  0
  8  9  1  0     0  0
  9 10  1  0     0  0
 10 11  1  0     0  0
 11 12  1  0     0  0
 11 13  1  0     0  0
  7 14  1  0     0  0
 14 15  2  0     0  0
 15 16  1  0     0  0
  6 17  1  0     0  0
 16 17  2  0     0  0
  4 18  1  0     0  0
 18 19  2  0     0  0
 19 20  1  0     0  0
 20 21  2  0     0  0
 21 22  1  0     0  0
 22 23  1  0     0  0
 21 24  1  0     0  0
 18 25  1  0     0  0
 24 25  2  0     0  0
  3 26  1  0     0  0
 26 27  1  0     0  0
 27 28  1  0     0  0
 27 29  2  0     0  0
M  END
> <Compound>
Diltiazem

> <canonical_smiles>
O=C1[C@@H]([C@@H](SC2=C(N1CCN(C)C)C=CC=C2)C3=CC=C(OC)C=C3)OC(C)=O

> <standard_type>
pIC50

> <standard_units>
uM

> <standard_relation>
=

> <actual_activity_value>
-1.2380461031287955

> <predicted_activity_value>
nan

> <Publication_ID>
nan

$$$$
14
  CDPL    08252113263D 1   1.00000     0.00000

 19 20  0     0  0            999 V2000
    0.0000    0.0000    0.0000 C   0  0  0  0  0  4           0  0  0
    0.0000    0.0000    0.0000 N   0  0  0  0  0  3           0  0  0
    0.0000    0.0000    0.0000 C   0  0  0  0  0  4           0  0  0
    0.0000    0.0000    0.0000 C   0  0  0  0  0  4           0  0  0
    0.0000    0.0000    0.0000 O   0  0  0  0  0  2           0  0  0
    0.0000    0.0000    0.0000 C   0  0  0  0  0  4           0  0  0
    0.0000    0.0000    0.0000 C   0  0  0  0  0  4           0  0  0
    0.0000    0.0000    0.0000 C   0  0  0  0  0  4           0  0  0
    0.0000    0.0000    0.0000 C   0  0  0  0  0  4           0  0  0
    0.0000    0.0000    0.0000 C   0  0  0  0  0  4           0  0  0
    0.0000    0.0000    0.0000 C   0  0  0  0  0  4           0  0  0
    0.0000    0.0000    0.0000 C   0  0  0  0  0  4           0  0  0
    0.0000    0.0000    0.0000 C   0  0  0  0  0  4           0  0  0
    0.0000    0.0000    0.0000 C   0  0  0  0  0  4           0  0  0
    0.0000    0.0000    0.0000 C   0  0  0  0  0  4           0  0  0
    0.0000    0.0000    0.0000 C   0  0  0  0  0  4           0  0  0
    0.0000    0.0000    0.0000 C   0  0  0  0  0  4           0  0  0
    0.0000    0.0000    0.0000 C   0  0  0  0  0  4           0  0  0
    0.0000    0.0000    0.0000 C   0  0  0  0  0  4           0  0  0
  1  2  1  0     0  0
  2  3  1  0     0  0
  3  4  1  0     0  0
  4  5  1  0     0  0
  5  6  1  0     0  0
  6  7  1  0     0  0
  7  8  2  0     0  0
  8  9  1  0     0  0
  9 10  2  0     0  0
 10 11  1  0     0  0
  7 12  1  0     0  0
 11 12  2  0     0  0
  6 13  1  0     0  0
 13 14  2  0     0  0
 14 15  1  0     0  0
 15 16  2  0     0  0
 16 17  1  0     0  0
 13 18  1  0     0  0
 17 18  2  0     0  0
  2 19  1  0     0  0
M  END
> <Compound>
Diphenhydramine

> <canonical_smiles>
CN(CCOC(C1=CC=CC=C1)C2=CC=CC=C2)C

> <standard_type>
pIC50

> <standard_units>
uM

> <standard_relation>
=

> <actual_activity_value>
-1.4771212547196624

> <predicted_activity_value>
nan

> <Publication_ID>
nan

$$$$
15
  CDPL    08252113263D 1   1.00000     0.00000

 29 30  0     0  0            999 V2000
    0.0000    0.0000    0.0000 C   0  0  0  0  0  4           0  0  0
    0.0000    0.0000    0.0000 S   0  0  0  0  0  6           0  0  0
    0.0000    0.0000    0.0000 N   0  0  0  0  0  3           0  0  0
    0.0000    0.0000    0.0000 C   0  0  0  0  0  4           0  0  0
    0.0000    0.0000    0.0000 C   0  0  0  0  0  4           0  0  0
    0.0000    0.0000    0.0000 C   0  0  0  0  0  4           0  0  0
    0.0000    0.0000    0.0000 C   0  0  0  0  0  4           0  0  0
    0.0000    0.0000    0.0000 O   0  0  0  0  0  2           0  0  0
    0.0000    0.0000    0.0000 C   0  0  0  0  0  4           0  0  0
    0.0000    0.0000    0.0000 C   0  0  0  0  0  4           0  0  0
    0.0000    0.0000    0.0000 N   0  0  0  0  0  3           0  0  0
    0.0000    0.0000    0.0000 C   0  0  0  0  0  4           0  0  0
    0.0000    0.0000    0.0000 C   0  0  0  0  0  4           0  0  0
    0.0000    0.0000    0.0000 C   0  0  0  0  0  4           0  0  0
    0.0000    0.0000    0.0000 C   0  0  0  0  0  4           0  0  0
    0.0000    0.0000    0.0000 C   0  0  0  0  0  4           0  0  0
    0.0000    0.0000    0.0000 C   0  0  0  0  0  4           0  0  0
    0.0000    0.0000    0.0000 C   0  0  0  0  0  4           0  0  0
    0.0000    0.0000    0.0000 N   0  0  0  0  0  3           0  0  0
    0.0000    0.0000    0.0000 S   0  0  0  0  0  6           0  0  0
    0.0000    0.0000    0.0000 C   0  0  0  0  0  4           0  0  0
    0.0000    0.0000    0.0000 O   0  0  0  0  0  2           0  0  0
    0.0000    0.0000    0.0000 O   0  0  0  0  0  2           0  0  0
    0.0000    0.0000    0.0000 C   0  0  0  0  0  4           0  0  0
    0.0000    0.0000    0.0000 C   0  0  0  0  0  4           0  0  0
    0.0000    0.0000    0.0000 C   0  0  0  0  0  4           0  0  0
    0.0000    0.0000    0.0000 C   0  0  0  0  0  4           0  0  0
    0.0000    0.0000    0.0000 O   0  0  0  0  0  2           0  0  0
    0.0000    0.0000    0.0000 O   0  0  0  0  0  2           0  0  0
  1  2  1  0     0  0
  2  3  1  0     0  0
  3  4  1  0     0  0
  4  5  2  0     0  0
  5  6  1  0     0  0
  6  7  2  0     0  0
  7  8  1  0     0  0
  8  9  1  0     0  0
  9 10  1  0     0  0
 10 11  1  0     0  0
 11 12  1  0     0  0
 11 13  1  0     0  0
 13 14  1  0     0  0
 14 15  1  0     0  0
 15 16  2  0     0  0
 16 17  1  0     0  0
 17 18  2  0     0  0
 18 19  1  0     0  0
 19 20  1  0     0  0
 20 21  1  0     0  0
 20 22  2  0     0  0
 20 23  2  0     0  0
 18 24  1  0     0  0
 15 25  1  0     0  0
 24 25  2  0     0  0
  7 26  1  0     0  0
  4 27  1  0     0  0
 26 27  2  0     0  0
  2 28  2  0     0  0
  2 29  2  0     0  0
M  END
> <Compound>
Dofetilide

> <canonical_smiles>
CS(NC1=CC=C(OCCN(C)CCC2=CC=C(NS(C)(=O)=O)C=C2)C=C1)(=O)=O

> <standard_type>
pIC50

> <standard_units>
uM

> <standard_relation>
=

> <actual_activity_value>
1.9208187539523751

> <predicted_activity_value>
nan

> <Publication_ID>
nan

$$$$
16
  CDPL    08252113263D 1   1.00000     0.00000

 26 30  0     0  0            999 V2000
    0.0000    0.0000    0.0000 O   0  0  0  0  0  2           0  0  0
    0.0000    0.0000    0.0000 C   0  0  0  0  0  4           0  0  0
    0.0000    0.0000    0.0000 C   0  0  0  0  0  4           0  0  0
    0.0000    0.0000    0.0000 C   0  0  0  0  0  4           0  0  0
    0.0000    0.0000    0.0000 C   0  0  2  0  0  4           0  0  0
    0.0000    0.0000    0.0000 C   0  0  0  0  0  4           0  0  0
    0.0000    0.0000    0.0000 C   0  0  2  0  0  4           0  0  0
    0.0000    0.0000    0.0000 O   0  0  0  0  0  2           0  0  0
    0.0000    0.0000    0.0000 C   0  0  0  0  0  4           0  0  0
    0.0000    0.0000    0.0000 C   0  0  0  0  0  4           0  0  0
    0.0000    0.0000    0.0000 C   0  0  0  0  0  4           0  0  0
    0.0000    0.0000    0.0000 N   0  0  0  0  0  3           0  0  0
    0.0000    0.0000    0.0000 C   0  0  0  0  0  4           0  0  0
    0.0000    0.0000    0.0000 C   0  0  0  0  0  4           0  0  0
    0.0000    0.0000    0.0000 C   0  0  0  0  0  4           0  0  0
    0.0000    0.0000    0.0000 C   0  0  0  0  0  4           0  0  0
    0.0000    0.0000    0.0000 C   0  0  0  0  0  4           0  0  0
    0.0000    0.0000    0.0000 C   0  0  0  0  0  4           0  0  0
    0.0000    0.0000    0.0000 O   0  0  0  0  0  2           0  0  0
    0.0000    0.0000    0.0000 C   0  0  0  0  0  4           0  0  0
    0.0000    0.0000    0.0000 C   0  0  2  0  0  4           0  0  0
    0.0000    0.0000    0.0000 H   0  0  0  0  0  1           0  0  0
    0.0000    0.0000    0.0000 C   0  0  0  0  0  4           0  0  0
    0.0000    0.0000    0.0000 H   0  0  0  0  0  1           0  0  0
    0.0000    0.0000    0.0000 N   0  0  2  0  0  3           0  0  0
    0.0000    0.0000    0.0000 C   0  0  0  0  0  4           0  0  0
  1  2  2  0     0  0
  2  3  1  0     0  0
  3  4  1  0     0  0
  4  5  1  0     0  0
  5  6  1  0     0  0
  6  7  1  0     0  0
  7  8  1  0     0  0
  8  9  1  0     0  0
  9 10  1  0     0  0
 10 11  2  0     0  0
 11 12  1  0     0  0
 12 13  1  0     0  0
 10 14  1  0     0  0
 13 14  2  0     0  0
 14 15  1  0     0  0
 15 16  2  0     0  0
 16 17  1  0     0  0
 13 18  1  0     0  0
 17 18  2  0     0  0
  9 19  2  0     0  0
  7 20  1  0     0  0
 20 21  1  0     0  0
 21 22  1  0     0  0
  3 23  1  0     0  0
 21 23  1  0     0  0
  5 24  1  0     0  0
 21 25  1  0     0  0
  5 25  1  0     0  0
  2 26  1  0     0  0
 25 26  1  0     0  0
M  END
> <Compound>
Dolasetron

> <canonical_smiles>
O=C1C2C[C@@](C[C@H](OC(C3=CNC4=C3C=CC=C4)=O)C[C@]5([H])C2)([H])[N@]5C1

> <standard_type>
pIC50

> <standard_units>
uM

> <standard_relation>
=

> <actual_activity_value>
-0.7745169657285496

> <predicted_activity_value>
nan

> <Publication_ID>
nan

$$$$
17
  CDPL    08252113263D 1   1.00000     0.00000

 30 34  0     0  0            999 V2000
    0.0000    0.0000    0.0000 O   0  0  0  0  0  2           0  0  0
    0.0000    0.0000    0.0000 C   0  0  0  0  0  4           0  0  0
    0.0000    0.0000    0.0000 N   0  0  0  0  0  3           0  0  0
    0.0000    0.0000    0.0000 C   0  0  0  0  0  4           0  0  0
    0.0000    0.0000    0.0000 C   0  0  0  0  0  4           0  0  0
    0.0000    0.0000    0.0000 C   0  0  0  0  0  4           0  0  0
    0.0000    0.0000    0.0000 N   0  0  0  0  0  3           0  0  0
    0.0000    0.0000    0.0000 C   0  0  0  0  0  4           0  0  0
    0.0000    0.0000    0.0000 C   0  0  0  0  0  4           0  0  0
    0.0000    0.0000    0.0000 C   0  0  0  0  0  4           0  0  0
    0.0000    0.0000    0.0000 N   0  0  0  0  0  3           0  0  0
    0.0000    0.0000    0.0000 C   0  0  0  0  0  4           0  0  0
    0.0000    0.0000    0.0000 C   0  0  0  0  0  4           0  0  0
    0.0000    0.0000    0.0000 C   0  0  0  0  0  4           0  0  0
    0.0000    0.0000    0.0000 C   0  0  0  0  0  4           0  0  0
    0.0000    0.0000    0.0000 Cl  0  0  0  0  0  1           0  0  0
    0.0000    0.0000    0.0000 C   0  0  0  0  0  4           0  0  0
    0.0000    0.0000    0.0000 C   0  0  0  0  0  4           0  0  0
    0.0000    0.0000    0.0000 N   0  0  0  0  0  3           0  0  0
    0.0000    0.0000    0.0000 C   0  0  0  0  0  4           0  0  0
    0.0000    0.0000    0.0000 O   0  0  0  0  0  2           0  0  0
    0.0000    0.0000    0.0000 C   0  0  0  0  0  4           0  0  0
    0.0000    0.0000    0.0000 C   0  0  0  0  0  4           0  0  0
    0.0000    0.0000    0.0000 C   0  0  0  0  0  4           0  0  0
    0.0000    0.0000    0.0000 C   0  0  0  0  0  4           0  0  0
    0.0000    0.0000    0.0000 C   0  0  0  0  0  4           0  0  0
    0.0000    0.0000    0.0000 C   0  0  0  0  0  4           0  0  0
    0.0000    0.0000    0.0000 C   0  0  0  0  0  4           0  0  0
    0.0000    0.0000    0.0000 C   0  0  0  0  0  4           0  0  0
    0.0000    0.0000    0.0000 N   0  0  0  0  0  3           0  0  0
  1  2  2  0     0  0
  2  3  1  0     0  0
  3  4  1  0     0  0
  4  5  1  0     0  0
  5  6  1  0     0  0
  6  7  1  0     0  0
  7  8  1  0     0  0
  8  9  1  0     0  0
  9 10  1  0     0  0
 10 11  1  0     0  0
 11 12  1  0     0  0
 12 13  1  0     0  0
 13 14  2  0     0  0
 14 15  1  0     0  0
 15 16  1  0     0  0
 15 17  2  0     0  0
 17 18  1  0     0  0
 12 18  2  0     0  0
 18 19  1  0     0  0
 11 20  1  0     0  0
 19 20  1  0     0  0
 20 21  2  0     0  0
 10 22  1  0     0  0
  7 23  1  0     0  0
 22 23  1  0     0  0
  3 24  1  0     0  0
 24 25  2  0     0  0
 25 26  1  0     0  0
 26 27  2  0     0  0
 27 28  1  0     0  0
 24 29  1  0     0  0
 28 29  2  0     0  0
  2 30  1  0     0  0
 25 30  1  0     0  0
M  END
> <Compound>
Domperidone

> <canonical_smiles>
O=C1N(CCCN2CCC(N3C(C=CC(Cl)=C4)=C4NC3=O)CC2)C5=C(C=CC=C5)N1

> <standard_type>
pIC50

> <standard_units>
uM

> <standard_relation>
=

> <actual_activity_value>
0.790484985457369

> <predicted_activity_value>
nan

> <Publication_ID>
nan

$$$$
18
  CDPL    08252113263D 1   1.00000     0.00000

 28 31  0     0  0            999 V2000
    0.0000    0.0000    0.0000 O   0  0  0  0  0  2           0  0  0
    0.0000    0.0000    0.0000 C   0  0  0  0  0  4           0  0  0
    0.0000    0.0000    0.0000 N   0  0  0  0  0  3           0  0  0
    0.0000    0.0000    0.0000 N   0  0  0  0  0  3           0  0  0
    0.0000    0.0000    0.0000 C   0  0  0  0  0  4           0  0  0
    0.0000    0.0000    0.0000 C   0  0  0  0  0  4           0  0  0
    0.0000    0.0000    0.0000 C   0  0  0  0  0  4           0  0  0
    0.0000    0.0000    0.0000 N   0  0  0  0  0  3           0  0  0
    0.0000    0.0000    0.0000 C   0  0  0  0  0  4           0  0  0
    0.0000    0.0000    0.0000 C   0  0  0  0  0  4           0  0  0
    0.0000    0.0000    0.0000 C   0  0  0  0  0  4           0  0  0
    0.0000    0.0000    0.0000 C   0  0  0  0  0  4           0  0  0
    0.0000    0.0000    0.0000 C   0  0  0  0  0  4           0  0  0
    0.0000    0.0000    0.0000 C   0  0  0  0  0  4           0  0  0
    0.0000    0.0000    0.0000 C   0  0  0  0  0  4           0  0  0
    0.0000    0.0000    0.0000 C   0  0  0  0  0  4           0  0  0
    0.0000    0.0000    0.0000 F   0  0  0  0  0  1           0  0  0
    0.0000    0.0000    0.0000 C   0  0  0  0  0  4           0  0  0
    0.0000    0.0000    0.0000 C   0  0  0  0  0  4           0  0  0
    0.0000    0.0000    0.0000 O   0  0  0  0  0  2           0  0  0
    0.0000    0.0000    0.0000 C   0  0  0  0  0  4           0  0  0
    0.0000    0.0000    0.0000 C   0  0  0  0  0  4           0  0  0
    0.0000    0.0000    0.0000 C   0  0  0  0  0  4           0  0  0
    0.0000    0.0000    0.0000 C   0  0  0  0  0  4           0  0  0
    0.0000    0.0000    0.0000 C   0  0  0  0  0  4           0  0  0
    0.0000    0.0000    0.0000 C   0  0  0  0  0  4           0  0  0
    0.0000    0.0000    0.0000 C   0  0  0  0  0  4           0  0  0
    0.0000    0.0000    0.0000 C   0  0  0  0  0  4           0  0  0
  1  2  2  0     0  0
  2  3  1  0     0  0
  2  4  1  0     0  0
  4  5  1  0     0  0
  5  6  2  0     0  0
  6  7  1  0     0  0
  7  8  1  0     0  0
  8  9  1  0     0  0
  9 10  1  0     0  0
 10 11  1  0     0  0
 11 12  1  0     0  0
 12 13  1  0     0  0
 13 14  2  0     0  0
 14 15  1  0     0  0
 15 16  2  0     0  0
 16 17  1  0     0  0
 16 18  1  0     0  0
 13 19  1  0     0  0
 18 19  2  0     0  0
 12 20  2  0     0  0
  8 21  1  0     0  0
  5 22  1  0     0  0
 21 22  1  0     0  0
  4 23  1  0     0  0
  3 24  1  0     0  0
 23 24  2  0     0  0
 24 25  1  0     0  0
 25 26  2  0     0  0
 26 27  1  0     0  0
 23 28  1  0     0  0
 27 28  2  0     0  0
M  END
> <Compound>
Droperidol

> <canonical_smiles>
O=C(N1)N(C2=CCN(CCCC(C3=CC=C(F)C=C3)=O)CC2)C4=C1C=CC=C4

> <standard_type>
pIC50

> <standard_units>
uM

> <standard_relation>
=

> <actual_activity_value>
1.494850021680094

> <predicted_activity_value>
nan

> <Publication_ID>
nan

$$$$
19
  CDPL    08252113263D 1   1.00000     0.00000

 28 30  0     0  0            999 V2000
    0.0000    0.0000    0.0000 C   0  0  0  0  0  4           0  0  0
    0.0000    0.0000    0.0000 C   0  0  0  0  0  4           0  0  0
    0.0000    0.0000    0.0000 N   0  0  0  0  0  3           0  0  0
    0.0000    0.0000    0.0000 C   0  0  0  0  0  4           0  0  0
    0.0000    0.0000    0.0000 C   0  0  0  0  0  4           0  0  0
    0.0000    0.0000    0.0000 C   0  0  0  0  0  4           0  0  0
    0.0000    0.0000    0.0000 N   0  0  0  0  0  3           0  0  0
    0.0000    0.0000    0.0000 C   0  0  0  0  0  4           0  0  0
    0.0000    0.0000    0.0000 C   0  0  0  0  0  4           0  0  0
    0.0000    0.0000    0.0000 C   0  0  0  0  0  4           0  0  0
    0.0000    0.0000    0.0000 C   0  0  0  0  0  4           0  0  0
    0.0000    0.0000    0.0000 C   0  0  0  0  0  4           0  0  0
    0.0000    0.0000    0.0000 C   0  0  0  0  0  4           0  0  0
    0.0000    0.0000    0.0000 C   0  0  0  0  0  4           0  0  0
    0.0000    0.0000    0.0000 C   0  0  0  0  0  4           0  0  0
    0.0000    0.0000    0.0000 N   0  0  0  0  0  3           0  0  0
    0.0000    0.0000    0.0000 S   0  0  0  0  0  6           0  0  0
    0.0000    0.0000    0.0000 O   0  0  0  0  0  2           0  0  0
    0.0000    0.0000    0.0000 C   0  0  0  0  0  4           0  0  0
    0.0000    0.0000    0.0000 O   0  0  0  0  0  2           0  0  0
    0.0000    0.0000    0.0000 C   0  0  0  0  0  4           0  0  0
    0.0000    0.0000    0.0000 C   0  0  0  0  0  4           0  0  0
    0.0000    0.0000    0.0000 O   0  0  0  0  0  2           0  0  0
    0.0000    0.0000    0.0000 C   0  0  0  0  0  4           0  0  0
    0.0000    0.0000    0.0000 C   0  0  0  0  0  4           0  0  0
    0.0000    0.0000    0.0000 C   0  0  0  0  0  4           0  0  0
    0.0000    0.0000    0.0000 C   0  0  0  0  0  4           0  0  0
    0.0000    0.0000    0.0000 C   0  0  0  0  0  4           0  0  0
  1  2  1  0     0  0
  2  3  2  0     0  0
  3  4  1  0     0  0
  4  5  1  0     0  0
  5  6  1  0     0  0
  6  7  1  0     0  0
  7  8  1  0     0  0
  8  9  1  0     0  0
  9 10  1  0     0  0
 10 11  1  0     0  0
 11 12  1  0     0  0
 12 13  2  0     0  0
 13 14  1  0     0  0
 14 15  2  0     0  0
 15 16  1  0     0  0
 16 17  1  0     0  0
 17 18  2  0     0  0
 17 19  1  0     0  0
 17 20  2  0     0  0
 15 21  1  0     0  0
 12 22  1  0     0  0
 21 22  2  0     0  0
 11 23  2  0     0  0
 10 24  1  0     0  0
  7 25  1  0     0  0
 24 25  1  0     0  0
  4 26  2  0     0  0
 26 27  1  0     0  0
  2 28  1  0     0  0
 27 28  2  0     0  0
M  END
> <Compound>
E-4031

> <canonical_smiles>
Cc1nc(CCN2CCC(C(c3ccc(NS(=O)(C)=O)cc3)=O)CC2)ccc1

> <standard_type>
pIC50

> <standard_units>
uM

> <standard_relation>
=

> <actual_activity_value>
2.0969100130080562

> <predicted_activity_value>
nan

> <Publication_ID>
nan

$$$$
20
  CDPL    08252113263D 1   1.00000     0.00000

 28 29  0     0  0            999 V2000
    0.0000    0.0000    0.0000 O   0  0  0  0  0  2           0  0  0
    0.0000    0.0000    0.0000 C   0  0  0  0  0  4           0  0  0
    0.0000    0.0000    0.0000 N   0  0  0  0  0  3           0  0  0
    0.0000    0.0000    0.0000 C   0  0  0  0  0  4           0  0  0
    0.0000    0.0000    0.0000 C   0  0  0  0  0  4           0  0  0
    0.0000    0.0000    0.0000 C   0  0  0  0  0  4           0  0  0
    0.0000    0.0000    0.0000 C   0  0  0  0  0  4           0  0  0
    0.0000    0.0000    0.0000 C   0  0  0  0  0  4           0  0  0
    0.0000    0.0000    0.0000 C   0  0  0  0  0  4           0  0  0
    0.0000    0.0000    0.0000 N   0  0  0  0  0  3           0  0  0
    0.0000    0.0000    0.0000 C   0  0  0  0  0  4           0  0  0
    0.0000    0.0000    0.0000 C   0  0  0  0  0  4           0  0  0
    0.0000    0.0000    0.0000 C   0  0  0  0  0  4           0  0  0
    0.0000    0.0000    0.0000 O   0  0  0  0  0  2           0  0  0
    0.0000    0.0000    0.0000 C   0  0  0  0  0  4           0  0  0
    0.0000    0.0000    0.0000 C   0  0  0  0  0  4           0  0  0
    0.0000    0.0000    0.0000 F   0  0  0  0  0  1           0  0  0
    0.0000    0.0000    0.0000 F   0  0  0  0  0  1           0  0  0
    0.0000    0.0000    0.0000 F   0  0  0  0  0  1           0  0  0
    0.0000    0.0000    0.0000 C   0  0  0  0  0  4           0  0  0
    0.0000    0.0000    0.0000 C   0  0  0  0  0  4           0  0  0
    0.0000    0.0000    0.0000 C   0  0  0  0  0  4           0  0  0
    0.0000    0.0000    0.0000 O   0  0  0  0  0  2           0  0  0
    0.0000    0.0000    0.0000 C   0  0  0  0  0  4           0  0  0
    0.0000    0.0000    0.0000 C   0  0  0  0  0  4           0  0  0
    0.0000    0.0000    0.0000 F   0  0  0  0  0  1           0  0  0
    0.0000    0.0000    0.0000 F   0  0  0  0  0  1           0  0  0
    0.0000    0.0000    0.0000 F   0  0  0  0  0  1           0  0  0
  1  2  2  0     0  0
  2  3  1  0     0  0
  3  4  1  0     0  0
  4  5  1  0     0  0
  5  6  1  0     0  0
  6  7  1  0     0  0
  7  8  1  0     0  0
  8  9  1  0     0  0
  5 10  1  0     0  0
  9 10  1  0     0  0
  2 11  1  0     0  0
 11 12  2  0     0  0
 12 13  1  0     0  0
 13 14  1  0     0  0
 14 15  1  0     0  0
 15 16  1  0     0  0
 16 17  1  0     0  0
 16 18  1  0     0  0
 16 19  1  0     0  0
 13 20  2  0     0  0
 20 21  1  0     0  0
 11 22  1  0     0  0
 21 22  2  0     0  0
 22 23  1  0     0  0
 23 24  1  0     0  0
 24 25  1  0     0  0
 25 26  1  0     0  0
 25 27  1  0     0  0
 25 28  1  0     0  0
M  END
> <Compound>
Flecainide

> <canonical_smiles>
O=C(NCC1CCCCN1)C2=CC(OCC(F)(F)F)=CC=C2OCC(F)(F)F

> <standard_type>
pIC50

> <standard_units>
uM

> <standard_relation>
=

> <actual_activity_value>
-0.5921767573958668

> <predicted_activity_value>
nan

> <Publication_ID>
nan

$$$$
21
  CDPL    08252113263D 1   1.00000     0.00000

 27 30  0     0  0            999 V2000
    0.0000    0.0000    0.0000 O   0  0  0  0  0  2           0  0  0
    0.0000    0.0000    0.0000 C   0  0  0  0  0  4           0  0  0
    0.0000    0.0000    0.0000 C   0  0  0  0  0  4           0  0  0
    0.0000    0.0000    0.0000 C   0  0  0  0  0  4           0  0  0
    0.0000    0.0000    0.0000 O   0  0  0  0  0  2           0  0  0
    0.0000    0.0000    0.0000 O   0  0  0  0  0  2           0  0  0
    0.0000    0.0000    0.0000 C   0  0  0  0  0  4           0  0  0
    0.0000    0.0000    0.0000 N   0  0  0  0  0  3           0  0  0
    0.0000    0.0000    0.0000 C   0  0  0  0  0  4           0  0  0
    0.0000    0.0000    0.0000 C   0  0  0  0  0  4           0  0  0
    0.0000    0.0000    0.0000 C   0  0  0  0  0  4           0  0  0
    0.0000    0.0000    0.0000 C   0  0  0  0  0  4           0  0  0
    0.0000    0.0000    0.0000 C   0  0  0  0  0  4           0  0  0
    0.0000    0.0000    0.0000 C   0  0  0  0  0  4           0  0  0
    0.0000    0.0000    0.0000 C   0  0  0  0  0  4           0  0  0
    0.0000    0.0000    0.0000 O   0  0  0  0  0  2           0  0  0
    0.0000    0.0000    0.0000 C   0  0  0  0  0  4           0  0  0
    0.0000    0.0000    0.0000 C   0  0  0  0  0  4           0  0  0
    0.0000    0.0000    0.0000 N   0  0  0  0  0  3           0  0  0
    0.0000    0.0000    0.0000 C   0  0  0  0  0  4           0  0  0
    0.0000    0.0000    0.0000 C   0  0  0  0  0  4           0  0  0
    0.0000    0.0000    0.0000 N   0  0  0  0  0  3           0  0  0
    0.0000    0.0000    0.0000 C   0  0  0  0  0  4           0  0  0
    0.0000    0.0000    0.0000 C   0  0  0  0  0  4           0  0  0
    0.0000    0.0000    0.0000 C   0  0  0  0  0  4           0  0  0
    0.0000    0.0000    0.0000 C   0  0  0  0  0  4           0  0  0
    0.0000    0.0000    0.0000 F   0  0  0  0  0  1           0  0  0
  1  2  2  0     0  0
  2  3  1  0     0  0
  3  4  1  0     0  0
  4  5  1  0     0  0
  4  6  2  0     0  0
  3  7  2  0     0  0
  7  8  1  0     0  0
  8  9  1  0     0  0
  9 10  1  0     0  0
  9 11  1  0     0  0
 10 11  1  0     0  0
  8 12  1  0     0  0
  2 13  1  0     0  0
 12 13  1  0     0  0
 13 14  2  0     0  0
 12 15  2  0     0  0
 15 16  1  0     0  0
 16 17  1  0     0  0
 15 18  1  0     0  0
 18 19  1  0     0  0
 19 20  1  0     0  0
 20 21  1  0     0  0
 21 22  1  0     0  0
 22 23  1  0     0  0
 19 24  1  0     0  0
 23 24  1  0     0  0
 21 25  1  0     0  0
 14 26  1  0     0  0
 18 26  2  0     0  0
 26 27  1  0     0  0
M  END
> <Compound>
Gatifloxacin

> <canonical_smiles>
O=C1C(C(O)=O)=CN(C2CC2)C(C1=C3)=C(OC)C(N4CC(NCC4)C)=C3F

> <standard_type>
pIC50

> <standard_units>
uM

> <standard_relation>
=

> <actual_activity_value>
-2.113943352306837

> <predicted_activity_value>
nan

> <Publication_ID>
nan

$$$$
22
  CDPL    08252113263D 1   1.00000     0.00000

 23 26  0     0  0            999 V2000
    0.0000    0.0000    0.0000 O   0  0  0  0  0  2           0  0  0
    0.0000    0.0000    0.0000 C   0  0  0  0  0  4           0  0  0
    0.0000    0.0000    0.0000 N   0  0  0  0  0  3           0  0  0
    0.0000    0.0000    0.0000 C   0  0  2  0  0  4           0  0  0
    0.0000    0.0000    0.0000 C   0  0  0  0  0  4           0  0  0
    0.0000    0.0000    0.0000 C   0  0  2  0  0  4           0  0  0
    0.0000    0.0000    0.0000 C   0  0  0  0  0  4           0  0  0
    0.0000    0.0000    0.0000 C   0  0  0  0  0  4           0  0  0
    0.0000    0.0000    0.0000 C   0  0  0  0  0  4           0  0  0
    0.0000    0.0000    0.0000 C   0  0  2  0  0  4           0  0  0
    0.0000    0.0000    0.0000 C   0  0  0  0  0  4           0  0  0
    0.0000    0.0000    0.0000 N   0  0  0  0  0  3           0  0  0
    0.0000    0.0000    0.0000 C   0  0  0  0  0  4           0  0  0
    0.0000    0.0000    0.0000 C   0  0  0  0  0  4           0  0  0
    0.0000    0.0000    0.0000 C   0  0  0  0  0  4           0  0  0
    0.0000    0.0000    0.0000 C   0  0  0  0  0  4           0  0  0
    0.0000    0.0000    0.0000 C   0  0  0  0  0  4           0  0  0
    0.0000    0.0000    0.0000 C   0  0  0  0  0  4           0  0  0
    0.0000    0.0000    0.0000 C   0  0  0  0  0  4           0  0  0
    0.0000    0.0000    0.0000 C   0  0  0  0  0  4           0  0  0
    0.0000    0.0000    0.0000 N   0  0  0  0  0  3           0  0  0
    0.0000    0.0000    0.0000 N   0  0  0  0  0  3           0  0  0
    0.0000    0.0000    0.0000 C   0  0  0  0  0  4           0  0  0
  1  2  2  0     0  0
  2  3  1  0     0  0
  3  4  1  0     0  0
  4  5  1  0     0  0
  5  6  1  0     0  0
  6  7  1  0     0  0
  7  8  1  0     0  0
  8  9  1  0     0  0
  9 10  1  0     0  0
  4 11  1  0     0  0
 10 11  1  0     0  0
  6 12  1  0     0  0
 10 12  1  0     0  0
 12 13  1  0     0  0
  2 14  1  0     0  0
 14 15  1  0     0  0
 15 16  2  0     0  0
 16 17  1  0     0  0
 17 18  2  0     0  0
 18 19  1  0     0  0
 15 20  1  0     0  0
 19 20  2  0     0  0
 14 21  2  0     0  0
 20 22  1  0     0  0
 21 22  1  0     0  0
 22 23  1  0     0  0
M  END
> <Compound>
Granisetron

> <canonical_smiles>
O=C(N[C@@H]1C[C@@H]2CCC[C@H](C1)N2C)C(C3=CC=CC=C34)=NN4C

> <standard_type>
pIC50

> <standard_units>
uM

> <standard_relation>
=

> <actual_activity_value>
-0.5717088318086876

> <predicted_activity_value>
nan

> <Publication_ID>
nan

$$$$
23
  CDPL    08252113263D 1   1.00000     0.00000

 26 29  0     0  0            999 V2000
    0.0000    0.0000    0.0000 F   0  0  0  0  0  1           0  0  0
    0.0000    0.0000    0.0000 C   0  0  0  0  0  4           0  0  0
    0.0000    0.0000    0.0000 C   0  0  0  0  0  4           0  0  0
    0.0000    0.0000    0.0000 C   0  0  0  0  0  4           0  0  0
    0.0000    0.0000    0.0000 C   0  0  0  0  0  4           0  0  0
    0.0000    0.0000    0.0000 C   0  0  0  0  0  4           0  0  0
    0.0000    0.0000    0.0000 N   0  0  0  0  0  3           0  0  0
    0.0000    0.0000    0.0000 C   0  0  0  0  0  4           0  0  0
    0.0000    0.0000    0.0000 C   0  0  0  0  0  4           0  0  0
    0.0000    0.0000    0.0000 C   0  0  0  0  0  4           0  0  0
    0.0000    0.0000    0.0000 C   0  0  0  0  0  4           0  0  0
    0.0000    0.0000    0.0000 C   0  0  0  0  0  4           0  0  0
    0.0000    0.0000    0.0000 C   0  0  0  0  0  4           0  0  0
    0.0000    0.0000    0.0000 O   0  0  0  0  0  2           0  0  0
    0.0000    0.0000    0.0000 O   0  0  0  0  0  2           0  0  0
    0.0000    0.0000    0.0000 C   0  0  0  0  0  4           0  0  0
    0.0000    0.0000    0.0000 O   0  0  0  0  0  2           0  0  0
    0.0000    0.0000    0.0000 C   0  0  0  0  0  4           0  0  0
    0.0000    0.0000    0.0000 C   0  0  0  0  0  4           0  0  0
    0.0000    0.0000    0.0000 N   0  0  0  0  0  3           0  0  0
    0.0000    0.0000    0.0000 C   0  0  0  0  0  4           0  0  0
    0.0000    0.0000    0.0000 C   0  0  0  0  0  4           0  0  0
    0.0000    0.0000    0.0000 C   0  0  0  0  0  4           0  0  0
    0.0000    0.0000    0.0000 N   0  0  0  0  0  3           0  0  0
    0.0000    0.0000    0.0000 C   0  0  0  0  0  4           0  0  0
    0.0000    0.0000    0.0000 C   0  0  0  0  0  4           0  0  0
  1  2  1  0     0  0
  2  3  2  0     0  0
  3  4  1  0     0  0
  3  5  1  0     0  0
  5  6  2  0     0  0
  6  7  1  0     0  0
  7  8  1  0     0  0
  8  9  1  0     0  0
  8 10  1  0     0  0
  9 10  1  0     0  0
  7 11  1  0     0  0
 11 12  2  0     0  0
 12 13  1  0     0  0
 13 14  1  0     0  0
 13 15  2  0     0  0
  5 16  1  0     0  0
 12 16  1  0     0  0
 16 17  2  0     0  0
  6 18  1  0     0  0
  2 19  1  0     0  0
 18 19  2  0     0  0
 19 20  1  0     0  0
 20 21  1  0     0  0
 21 22  1  0     0  0
 22 23  1  0     0  0
 22 24  1  0     0  0
 24 25  1  0     0  0
 20 26  1  0     0  0
 25 26  1  0     0  0
M  END
> <Compound>
Grepafloxacin 

> <canonical_smiles>
FC1=C(C)C2=C(N(C3CC3)C=C(C(O)=O)C2=O)C=C1N4CC(C)NCC4

> <standard_type>
pIC50

> <standard_units>
uM

> <standard_relation>
=

> <actual_activity_value>
-1.6989700043360187

> <predicted_activity_value>
nan

> <Publication_ID>
nan

$$$$
24
  CDPL    08252113263D 1   1.00000     0.00000

 33 35  0     0  0            999 V2000
    0.0000    0.0000    0.0000 O   0  0  0  0  0  2           0  0  0
    0.0000    0.0000    0.0000 C   0  0  0  0  0  4           0  0  0
    0.0000    0.0000    0.0000 C   0  0  0  0  0  4           0  0  0
    0.0000    0.0000    0.0000 C   0  0  0  0  0  4           0  0  0
    0.0000    0.0000    0.0000 C   0  0  0  0  0  4           0  0  0
    0.0000    0.0000    0.0000 C   0  0  0  0  0  4           0  0  0
    0.0000    0.0000    0.0000 C   0  0  0  0  0  4           0  0  0
    0.0000    0.0000    0.0000 C   0  0  0  0  0  4           0  0  0
    0.0000    0.0000    0.0000 C   0  0  0  0  0  4           0  0  0
    0.0000    0.0000    0.0000 C   0  0  0  0  0  4           0  0  0
    0.0000    0.0000    0.0000 C   0  0  0  0  0  4           0  0  0
    0.0000    0.0000    0.0000 C   0  0  0  0  0  4           0  0  0
    0.0000    0.0000    0.0000 C   0  0  0  0  0  4           0  0  0
    0.0000    0.0000    0.0000 C   0  0  0  0  0  4           0  0  0
    0.0000    0.0000    0.0000 F   0  0  0  0  0  1           0  0  0
    0.0000    0.0000    0.0000 F   0  0  0  0  0  1           0  0  0
    0.0000    0.0000    0.0000 F   0  0  0  0  0  1           0  0  0
    0.0000    0.0000    0.0000 C   0  0  0  0  0  4           0  0  0
    0.0000    0.0000    0.0000 C   0  0  0  0  0  4           0  0  0
    0.0000    0.0000    0.0000 C   0  0  0  0  0  4           0  0  0
    0.0000    0.0000    0.0000 Cl  0  0  0  0  0  1           0  0  0
    0.0000    0.0000    0.0000 Cl  0  0  0  0  0  1           0  0  0
    0.0000    0.0000    0.0000 C   0  0  0  0  0  4           0  0  0
    0.0000    0.0000    0.0000 C   0  0  0  0  0  4           0  0  0
    0.0000    0.0000    0.0000 N   0  0  0  0  0  3           0  0  0
    0.0000    0.0000    0.0000 C   0  0  0  0  0  4           0  0  0
    0.0000    0.0000    0.0000 C   0  0  0  0  0  4           0  0  0
    0.0000    0.0000    0.0000 C   0  0  0  0  0  4           0  0  0
    0.0000    0.0000    0.0000 C   0  0  0  0  0  4           0  0  0
    0.0000    0.0000    0.0000 C   0  0  0  0  0  4           0  0  0
    0.0000    0.0000    0.0000 C   0  0  0  0  0  4           0  0  0
    0.0000    0.0000    0.0000 C   0  0  0  0  0  4           0  0  0
    0.0000    0.0000    0.0000 C   0  0  0  0  0  4           0  0  0
  1  2  1  0     0  0
  2  3  1  0     0  0
  3  4  2  0     0  0
  4  5  1  0     0  0
  5  6  2  0     0  0
  6  7  1  0     0  0
  7  8  2  0     0  0
  8  9  1  0     0  0
  5 10  1  0     0  0
  9 10  2  0     0  0
 10 11  1  0     0  0
 11 12  2  0     0  0
 12 13  1  0     0  0
 13 14  1  0     0  0
 14 15  1  0     0  0
 14 16  1  0     0  0
 14 17  1  0     0  0
 13 18  2  0     0  0
 18 19  1  0     0  0
  3 20  1  0     0  0
 11 20  1  0     0  0
 19 20  2  0     0  0
  8 21  1  0     0  0
  6 22  1  0     0  0
  2 23  1  0     0  0
 23 24  1  0     0  0
 24 25  1  0     0  0
 25 26  1  0     0  0
 26 27  1  0     0  0
 27 28  1  0     0  0
 28 29  1  0     0  0
 25 30  1  0     0  0
 30 31  1  0     0  0
 31 32  1  0     0  0
 32 33  1  0     0  0
M  END
> <Compound>
Halofantrine 

> <canonical_smiles>
OC(C1=CC2=C(C=C(C=C2C3=CC(C(F)(F)F)=CC=C13)Cl)Cl)CCN(CCCC)CCCC

> <standard_type>
pIC50

> <standard_units>
uM

> <standard_relation>
=

> <actual_activity_value>
0.7055337738384071

> <predicted_activity_value>
nan

> <Publication_ID>
nan

$$$$
25
  CDPL    08252113263D 1   1.00000     0.00000

 26 28  0     0  0            999 V2000
    0.0000    0.0000    0.0000 O   0  0  0  0  0  2           0  0  0
    0.0000    0.0000    0.0000 C   0  0  0  0  0  4           0  0  0
    0.0000    0.0000    0.0000 C   0  0  0  0  0  4           0  0  0
    0.0000    0.0000    0.0000 C   0  0  0  0  0  4           0  0  0
    0.0000    0.0000    0.0000 C   0  0  0  0  0  4           0  0  0
    0.0000    0.0000    0.0000 N   0  0  0  0  0  3           0  0  0
    0.0000    0.0000    0.0000 C   0  0  0  0  0  4           0  0  0
    0.0000    0.0000    0.0000 C   0  0  0  0  0  4           0  0  0
    0.0000    0.0000    0.0000 C   0  0  0  0  0  4           0  0  0
    0.0000    0.0000    0.0000 C   0  0  0  0  0  4           0  0  0
    0.0000    0.0000    0.0000 C   0  0  0  0  0  4           0  0  0
    0.0000    0.0000    0.0000 C   0  0  0  0  0  4           0  0  0
    0.0000    0.0000    0.0000 C   0  0  0  0  0  4           0  0  0
    0.0000    0.0000    0.0000 Cl  0  0  0  0  0  1           0  0  0
    0.0000    0.0000    0.0000 C   0  0  0  0  0  4           0  0  0
    0.0000    0.0000    0.0000 C   0  0  0  0  0  4           0  0  0
    0.0000    0.0000    0.0000 O   0  0  0  0  0  2           0  0  0
    0.0000    0.0000    0.0000 C   0  0  0  0  0  4           0  0  0
    0.0000    0.0000    0.0000 C   0  0  0  0  0  4           0  0  0
    0.0000    0.0000    0.0000 C   0  0  0  0  0  4           0  0  0
    0.0000    0.0000    0.0000 C   0  0  0  0  0  4           0  0  0
    0.0000    0.0000    0.0000 C   0  0  0  0  0  4           0  0  0
    0.0000    0.0000    0.0000 C   0  0  0  0  0  4           0  0  0
    0.0000    0.0000    0.0000 F   0  0  0  0  0  1           0  0  0
    0.0000    0.0000    0.0000 C   0  0  0  0  0  4           0  0  0
    0.0000    0.0000    0.0000 C   0  0  0  0  0  4           0  0  0
  1  2  2  0     0  0
  2  3  1  0     0  0
  3  4  1  0     0  0
  4  5  1  0     0  0
  5  6  1  0     0  0
  6  7  1  0     0  0
  7  8  1  0     0  0
  8  9  1  0     0  0
  9 10  1  0     0  0
 10 11  2  0     0  0
 11 12  1  0     0  0
 12 13  2  0     0  0
 13 14  1  0     0  0
 13 15  1  0     0  0
 10 16  1  0     0  0
 15 16  2  0     0  0
  9 17  1  0     0  0
  9 18  1  0     0  0
  6 19  1  0     0  0
 18 19  1  0     0  0
  2 20  1  0     0  0
 20 21  2  0     0  0
 21 22  1  0     0  0
 22 23  2  0     0  0
 23 24  1  0     0  0
 23 25  1  0     0  0
 20 26  1  0     0  0
 25 26  2  0     0  0
M  END
> <Compound>
Haloperidol 

> <canonical_smiles>
O=C(CCCN1CCC(C2=CC=C(Cl)C=C2)(O)CC1)C3=CC=C(F)C=C3

> <standard_type>
pIC50

> <standard_units>
uM

> <standard_relation>
=

> <actual_activity_value>
0.5528419686577808

> <predicted_activity_value>
nan

> <Publication_ID>
nan

$$$$
26
  CDPL    08252113263D 1   1.00000     0.00000

 21 23  0     0  0            999 V2000
    0.0000    0.0000    0.0000 C   0  0  0  0  0  4           0  0  0
    0.0000    0.0000    0.0000 N   0  0  0  0  0  3           0  0  0
    0.0000    0.0000    0.0000 C   0  0  0  0  0  4           0  0  0
    0.0000    0.0000    0.0000 C   0  0  0  0  0  4           0  0  0
    0.0000    0.0000    0.0000 C   0  0  0  0  0  4           0  0  0
    0.0000    0.0000    0.0000 C   0  0  0  0  0  4           0  0  0
    0.0000    0.0000    0.0000 N   0  0  0  0  0  3           0  0  0
    0.0000    0.0000    0.0000 C   0  0  0  0  0  4           0  0  0
    0.0000    0.0000    0.0000 C   0  0  0  0  0  4           0  0  0
    0.0000    0.0000    0.0000 C   0  0  0  0  0  4           0  0  0
    0.0000    0.0000    0.0000 C   0  0  0  0  0  4           0  0  0
    0.0000    0.0000    0.0000 C   0  0  0  0  0  4           0  0  0
    0.0000    0.0000    0.0000 C   0  0  0  0  0  4           0  0  0
    0.0000    0.0000    0.0000 C   0  0  0  0  0  4           0  0  0
    0.0000    0.0000    0.0000 C   0  0  0  0  0  4           0  0  0
    0.0000    0.0000    0.0000 C   0  0  0  0  0  4           0  0  0
    0.0000    0.0000    0.0000 C   0  0  0  0  0  4           0  0  0
    0.0000    0.0000    0.0000 C   0  0  0  0  0  4           0  0  0
    0.0000    0.0000    0.0000 C   0  0  0  0  0  4           0  0  0
    0.0000    0.0000    0.0000 C   0  0  0  0  0  4           0  0  0
    0.0000    0.0000    0.0000 C   0  0  0  0  0  4           0  0  0
  1  2  1  0     0  0
  2  3  1  0     0  0
  2  4  1  0     0  0
  4  5  1  0     0  0
  5  6  1  0     0  0
  6  7  1  0     0  0
  7  8  1  0     0  0
  8  9  2  0     0  0
  9 10  1  0     0  0
 10 11  2  0     0  0
 11 12  1  0     0  0
  8 13  1  0     0  0
 12 13  2  0     0  0
  9 14  1  0     0  0
 14 15  1  0     0  0
 15 16  1  0     0  0
  7 17  1  0     0  0
 16 17  2  0     0  0
 17 18  1  0     0  0
 18 19  2  0     0  0
 19 20  1  0     0  0
 16 21  1  0     0  0
 20 21  2  0     0  0
M  END
> <Compound>
Imipramine 

> <canonical_smiles>
CN(C)CCCN1C2=C(C=CC=C2)CCC3=C1C=CC=C3

> <standard_type>
pIC50

> <standard_units>
uM

> <standard_relation>
=

> <actual_activity_value>
-0.5314789170422551

> <predicted_activity_value>
nan

> <Publication_ID>
nan

$$$$
27
  CDPL    08252113263D 1   1.00000     0.00000

 17 17  0     0  0            999 V2000
    0.0000    0.0000    0.0000 C   0  0  0  0  0  4           0  0  0
    0.0000    0.0000    0.0000 C   0  0  0  0  0  4           0  0  0
    0.0000    0.0000    0.0000 C   0  0  0  0  0  4           0  0  0
    0.0000    0.0000    0.0000 C   0  0  0  0  0  4           0  0  0
    0.0000    0.0000    0.0000 C   0  0  0  0  0  4           0  0  0
    0.0000    0.0000    0.0000 C   0  0  0  0  0  4           0  0  0
    0.0000    0.0000    0.0000 C   0  0  0  0  0  4           0  0  0
    0.0000    0.0000    0.0000 C   0  0  0  0  0  4           0  0  0
    0.0000    0.0000    0.0000 N   0  0  0  0  0  3           0  0  0
    0.0000    0.0000    0.0000 C   0  0  0  0  0  4           0  0  0
    0.0000    0.0000    0.0000 C   0  0  0  0  0  4           0  0  0
    0.0000    0.0000    0.0000 N   0  0  0  0  0  3           0  0  0
    0.0000    0.0000    0.0000 C   0  0  0  0  0  4           0  0  0
    0.0000    0.0000    0.0000 C   0  0  0  0  0  4           0  0  0
    0.0000    0.0000    0.0000 C   0  0  0  0  0  4           0  0  0
    0.0000    0.0000    0.0000 C   0  0  0  0  0  4           0  0  0
    0.0000    0.0000    0.0000 O   0  0  0  0  0  2           0  0  0
  1  2  1  0     0  0
  2  3  2  0     0  0
  3  4  1  0     0  0
  4  5  2  0     0  0
  5  6  1  0     0  0
  6  7  1  0     0  0
  2  8  1  0     0  0
  6  8  2  0     0  0
  8  9  1  0     0  0
  9 10  1  0     0  0
 10 11  1  0     0  0
 11 12  1  0     0  0
 12 13  1  0     0  0
 13 14  1  0     0  0
 12 15  1  0     0  0
 15 16  1  0     0  0
 10 17  2  0     0  0
M  END
> <Compound>
Lidocaine 

> <canonical_smiles>
CC1=CC=CC(C)=C1NC(CN(CC)CC)=O

> <standard_type>
pIC50

> <standard_units>
uM

> <standard_relation>
=

> <actual_activity_value>
-2.419790586106363

> <predicted_activity_value>
nan

> <Publication_ID>
nan

$$$$
28
  CDPL    08252113263D 1   1.00000     0.00000

 27 30  0     0  0            999 V2000
    0.0000    0.0000    0.0000 Cl  0  0  0  0  0  1           0  0  0
    0.0000    0.0000    0.0000 C   0  0  0  0  0  4           0  0  0
    0.0000    0.0000    0.0000 C   0  0  0  0  0  4           0  0  0
    0.0000    0.0000    0.0000 C   0  0  0  0  0  4           0  0  0
    0.0000    0.0000    0.0000 C   0  0  0  0  0  4           0  0  0
    0.0000    0.0000    0.0000 C   0  0  0  0  0  4           0  0  0
    0.0000    0.0000    0.0000 C   0  0  0  0  0  4           0  0  0
    0.0000    0.0000    0.0000 C   0  0  0  0  0  4           0  0  0
    0.0000    0.0000    0.0000 C   0  0  0  0  0  4           0  0  0
    0.0000    0.0000    0.0000 C   0  0  0  0  0  4           0  0  0
    0.0000    0.0000    0.0000 C   0  0  0  0  0  4           0  0  0
    0.0000    0.0000    0.0000 C   0  0  0  0  0  4           0  0  0
    0.0000    0.0000    0.0000 C   0  0  0  0  0  4           0  0  0
    0.0000    0.0000    0.0000 C   0  0  0  0  0  4           0  0  0
    0.0000    0.0000    0.0000 N   0  0  0  0  0  3           0  0  0
    0.0000    0.0000    0.0000 C   0  0  0  0  0  4           0  0  0
    0.0000    0.0000    0.0000 C   0  0  0  0  0  4           0  0  0
    0.0000    0.0000    0.0000 C   0  0  0  0  0  4           0  0  0
    0.0000    0.0000    0.0000 O   0  0  0  0  0  2           0  0  0
    0.0000    0.0000    0.0000 C   0  0  0  0  0  4           0  0  0
    0.0000    0.0000    0.0000 C   0  0  0  0  0  4           0  0  0
    0.0000    0.0000    0.0000 O   0  0  0  0  0  2           0  0  0
    0.0000    0.0000    0.0000 N   0  0  0  0  0  3           0  0  0
    0.0000    0.0000    0.0000 C   0  0  0  0  0  4           0  0  0
    0.0000    0.0000    0.0000 C   0  0  0  0  0  4           0  0  0
    0.0000    0.0000    0.0000 C   0  0  0  0  0  4           0  0  0
    0.0000    0.0000    0.0000 C   0  0  0  0  0  4           0  0  0
  1  2  1  0     0  0
  2  3  2  0     0  0
  3  4  1  0     0  0
  4  5  2  0     0  0
  5  6  1  0     0  0
  6  7  1  0     0  0
  7  8  1  0     0  0
  8  9  1  0     0  0
  9 10  2  0     0  0
  5 11  1  0     0  0
 10 11  1  0     0  0
 11 12  2  0     0  0
 12 13  1  0     0  0
 13 14  1  0     0  0
 14 15  1  0     0  0
 15 16  1  0     0  0
 12 17  1  0     0  0
 16 17  1  0     0  0
 15 18  1  0     0  0
 18 19  1  0     0  0
 19 20  1  0     0  0
 20 21  1  0     0  0
 18 22  2  0     0  0
 10 23  1  0     0  0
 23 24  2  0     0  0
 24 25  1  0     0  0
  9 26  1  0     0  0
 25 26  2  0     0  0
  2 27  1  0     0  0
  6 27  2  0     0  0
M  END
> <Compound>
Loratadine

> <canonical_smiles>
ClC1=CC=C2C(CCC3=C(/C2=C4CCN(CC\4)C(OCC)=O)N=CC=C3)=C1

> <standard_type>
pIC50

> <standard_units>
uM

> <standard_relation>
=

> <actual_activity_value>
0.7619538968712045

> <predicted_activity_value>
nan

> <Publication_ID>
nan

$$$$
29
  CDPL    08252113263D 1   1.00000     0.00000

 35 38  0     0  0            999 V2000
    0.0000    0.0000    0.0000 C   0  0  0  0  0  4           0  0  0
    0.0000    0.0000    0.0000 C   0  0  0  0  0  4           0  0  0
    0.0000    0.0000    0.0000 C   0  0  0  0  0  4           0  0  0
    0.0000    0.0000    0.0000 C   0  0  0  0  0  4           0  0  0
    0.0000    0.0000    0.0000 N   0  0  0  0  0  3           0  0  0
    0.0000    0.0000    0.0000 C   0  0  0  0  0  4           0  0  0
    0.0000    0.0000    0.0000 C   0  0  0  0  0  4           0  0  0
    0.0000    0.0000    0.0000 C   0  0  0  0  0  4           0  0  0
    0.0000    0.0000    0.0000 C   0  0  0  0  0  4           0  0  0
    0.0000    0.0000    0.0000 C   0  0  0  0  0  4           0  0  0
    0.0000    0.0000    0.0000 C   0  0  0  0  0  4           0  0  0
    0.0000    0.0000    0.0000 C   0  0  0  0  0  4           0  0  0
    0.0000    0.0000    0.0000 C   0  0  0  0  0  4           0  0  0
    0.0000    0.0000    0.0000 C   0  0  0  0  0  4           0  0  0
    0.0000    0.0000    0.0000 C   0  0  0  0  0  4           0  0  0
    0.0000    0.0000    0.0000 C   0  0  0  0  0  4           0  0  0
    0.0000    0.0000    0.0000 Cl  0  0  0  0  0  1           0  0  0
    0.0000    0.0000    0.0000 C   0  0  0  0  0  4           0  0  0
    0.0000    0.0000    0.0000 C   0  0  0  0  0  4           0  0  0
    0.0000    0.0000    0.0000 C   0  0  0  0  0  4           0  0  0
    0.0000    0.0000    0.0000 C   0  0  0  0  0  4           0  0  0
    0.0000    0.0000    0.0000 C   0  0  0  0  0  4           0  0  0
    0.0000    0.0000    0.0000 C   0  0  0  0  0  4           0  0  0
    0.0000    0.0000    0.0000 C   0  0  0  0  0  4           0  0  0
    0.0000    0.0000    0.0000 C   0  0  0  0  0  4           0  0  0
    0.0000    0.0000    0.0000 Cl  0  0  0  0  0  1           0  0  0
    0.0000    0.0000    0.0000 C   0  0  0  0  0  4           0  0  0
    0.0000    0.0000    0.0000 C   0  0  0  0  0  4           0  0  0
    0.0000    0.0000    0.0000 Cl  0  0  0  0  0  1           0  0  0
    0.0000    0.0000    0.0000 C   0  0  0  0  0  4           0  0  0
    0.0000    0.0000    0.0000 O   0  0  0  0  0  2           0  0  0
    0.0000    0.0000    0.0000 C   0  0  0  0  0  4           0  0  0
    0.0000    0.0000    0.0000 C   0  0  0  0  0  4           0  0  0
    0.0000    0.0000    0.0000 C   0  0  0  0  0  4           0  0  0
    0.0000    0.0000    0.0000 C   0  0  0  0  0  4           0  0  0
  1  2  1  0     0  0
  2  3  1  0     0  0
  3  4  1  0     0  0
  4  5  1  0     0  0
  5  6  1  0     0  0
  6  7  1  0     0  0
  7  8  1  0     0  0
  8  9  2  0     0  0
  9 10  1  0     0  0
 10 11  1  0     0  0
 11 12  1  0     0  0
  9 13  1  0     0  0
 12 13  2  0     0  0
 13 14  1  0     0  0
 14 15  2  0     0  0
 15 16  1  0     0  0
 16 17  1  0     0  0
 12 18  1  0     0  0
 16 18  2  0     0  0
 11 19  2  0     0  0
 19 20  1  0     0  0
 20 21  2  0     0  0
 21 22  1  0     0  0
 22 23  2  0     0  0
 23 24  1  0     0  0
 20 25  1  0     0  0
 24 25  2  0     0  0
 23 26  1  0     0  0
 10 27  2  0     0  0
 27 28  1  0     0  0
 28 29  1  0     0  0
  8 30  1  0     0  0
 28 30  2  0     0  0
  7 31  1  0     0  0
  5 32  1  0     0  0
 32 33  1  0     0  0
 33 34  1  0     0  0
 34 35  1  0     0  0
M  END
> <Compound>
Lumefantrine

> <canonical_smiles>
CCCCN(CC(C1=C2C(/C(C3=C2C=CC(Cl)=C3)=C\C4=CC=C(C=C4)Cl)=CC(Cl)=C1)O)CCCC

> <standard_type>
pIC50

> <standard_units>
uM

> <standard_relation>
=

> <actual_activity_value>
-0.9100905455940682

> <predicted_activity_value>
nan

> <Publication_ID>
nan

$$$$
30
  CDPL    08252113263D 1   1.00000     0.00000

 26 29  0     0  0            999 V2000
    0.0000    0.0000    0.0000 C   0  0  0  0  0  4           0  0  0
    0.0000    0.0000    0.0000 N   0  0  0  0  0  3           0  0  0
    0.0000    0.0000    0.0000 C   0  0  0  0  0  4           0  0  0
    0.0000    0.0000    0.0000 C   0  0  0  0  0  4           0  0  0
    0.0000    0.0000    0.0000 C   0  0  0  0  0  4           0  0  0
    0.0000    0.0000    0.0000 C   0  0  0  0  0  4           0  0  0
    0.0000    0.0000    0.0000 C   0  0  0  0  0  4           0  0  0
    0.0000    0.0000    0.0000 C   0  0  0  0  0  4           0  0  0
    0.0000    0.0000    0.0000 C   0  0  0  0  0  4           0  0  0
    0.0000    0.0000    0.0000 N   0  0  0  0  0  3           0  0  0
    0.0000    0.0000    0.0000 C   0  0  0  0  0  4           0  0  0
    0.0000    0.0000    0.0000 C   0  0  0  0  0  4           0  0  0
    0.0000    0.0000    0.0000 C   0  0  0  0  0  4           0  0  0
    0.0000    0.0000    0.0000 C   0  0  0  0  0  4           0  0  0
    0.0000    0.0000    0.0000 C   0  0  0  0  0  4           0  0  0
    0.0000    0.0000    0.0000 S   0  0  0  0  0  4           0  0  0
    0.0000    0.0000    0.0000 C   0  0  0  0  0  4           0  0  0
    0.0000    0.0000    0.0000 O   0  0  0  0  0  2           0  0  0
    0.0000    0.0000    0.0000 C   0  0  0  0  0  4           0  0  0
    0.0000    0.0000    0.0000 S   0  0  0  0  0  2           0  0  0
    0.0000    0.0000    0.0000 C   0  0  0  0  0  4           0  0  0
    0.0000    0.0000    0.0000 C   0  0  0  0  0  4           0  0  0
    0.0000    0.0000    0.0000 C   0  0  0  0  0  4           0  0  0
    0.0000    0.0000    0.0000 C   0  0  0  0  0  4           0  0  0
    0.0000    0.0000    0.0000 C   0  0  0  0  0  4           0  0  0
    0.0000    0.0000    0.0000 C   0  0  0  0  0  4           0  0  0
  1  2  1  0     0  0
  2  3  1  0     0  0
  3  4  1  0     0  0
  4  5  1  0     0  0
  5  6  1  0     0  0
  2  7  1  0     0  0
  6  7  1  0     0  0
  7  8  1  0     0  0
  8  9  1  0     0  0
  9 10  1  0     0  0
 10 11  1  0     0  0
 11 12  2  0     0  0
 12 13  1  0     0  0
 13 14  2  0     0  0
 14 15  1  0     0  0
 15 16  1  0     0  0
 16 17  1  0     0  0
 16 18  2  0     0  0
 11 19  1  0     0  0
 15 19  2  0     0  0
 12 20  1  0     0  0
 20 21  1  0     0  0
 10 22  1  0     0  0
 21 22  2  0     0  0
 22 23  1  0     0  0
 23 24  2  0     0  0
 24 25  1  0     0  0
 21 26  1  0     0  0
 25 26  2  0     0  0
M  END
> <Compound>
Mesoridazine

> <canonical_smiles>
CN1CCCCC1CCN2C3=C(C=CC(S(C)=O)=C3)SC4=C2C=CC=C4

> <standard_type>
pIC50

> <standard_units>
uM

> <standard_relation>
=

> <actual_activity_value>
0.2596373105057561

> <predicted_activity_value>
nan

> <Publication_ID>
nan

$$$$
31
  CDPL    08252113263D 1   1.00000     0.00000

 36 39  0     0  0            999 V2000
    0.0000    0.0000    0.0000 O   0  0  0  0  0  2           0  0  0
    0.0000    0.0000    0.0000 C   0  0  0  0  0  4           0  0  0
    0.0000    0.0000    0.0000 O   0  0  0  0  0  2           0  0  0
    0.0000    0.0000    0.0000 C   0  0  1  0  0  4           0  0  0
    0.0000    0.0000    0.0000 C   0  0  0  0  0  4           0  0  0
    0.0000    0.0000    0.0000 C   0  0  0  0  0  4           0  0  0
    0.0000    0.0000    0.0000 N   0  0  0  0  0  3           0  0  0
    0.0000    0.0000    0.0000 C   0  0  0  0  0  4           0  0  0
    0.0000    0.0000    0.0000 C   0  0  0  0  0  4           0  0  0
    0.0000    0.0000    0.0000 C   0  0  0  0  0  4           0  0  0
    0.0000    0.0000    0.0000 C   0  0  0  0  0  4           0  0  0
    0.0000    0.0000    0.0000 N   0  0  0  0  0  3           0  0  0
    0.0000    0.0000    0.0000 C   0  0  0  0  0  4           0  0  0
    0.0000    0.0000    0.0000 C   0  0  0  0  0  4           0  0  0
    0.0000    0.0000    0.0000 C   0  0  0  0  0  4           0  0  0
    0.0000    0.0000    0.0000 C   0  0  0  0  0  4           0  0  0
    0.0000    0.0000    0.0000 C   0  0  0  0  0  4           0  0  0
    0.0000    0.0000    0.0000 C   0  0  0  0  0  4           0  0  0
    0.0000    0.0000    0.0000 N   0  0  0  0  0  3           0  0  0
    0.0000    0.0000    0.0000 C   0  0  0  0  0  4           0  0  0
    0.0000    0.0000    0.0000 C   0  0  1  0  0  4           0  0  0
    0.0000    0.0000    0.0000 C   0  0  0  0  0  4           0  0  0
    0.0000    0.0000    0.0000 C   0  0  0  0  0  4           0  0  0
    0.0000    0.0000    0.0000 C   0  0  0  0  0  4           0  0  0
    0.0000    0.0000    0.0000 C   0  0  0  0  0  4           0  0  0
    0.0000    0.0000    0.0000 C   0  0  0  0  0  4           0  0  0
    0.0000    0.0000    0.0000 C   0  0  0  0  0  4           0  0  0
    0.0000    0.0000    0.0000 C   0  0  0  0  0  4           0  0  0
    0.0000    0.0000    0.0000 F   0  0  0  0  0  1           0  0  0
    0.0000    0.0000    0.0000 C   0  0  0  0  0  4           0  0  0
    0.0000    0.0000    0.0000 C   0  0  0  0  0  4           0  0  0
    0.0000    0.0000    0.0000 C   0  0  0  0  0  4           0  0  0
    0.0000    0.0000    0.0000 C   0  0  0  0  0  4           0  0  0
    0.0000    0.0000    0.0000 C   0  0  0  0  0  4           0  0  0
    0.0000    0.0000    0.0000 O   0  0  0  0  0  2           0  0  0
    0.0000    0.0000    0.0000 C   0  0  0  0  0  4           0  0  0
  1  2  2  0     0  0
  2  3  1  0     0  0
  3  4  1  0     0  0
  4  5  1  0     0  0
  5  6  1  0     0  0
  6  7  1  0     0  0
  7  8  1  0     0  0
  8  9  1  0     0  0
  9 10  1  0     0  0
 10 11  1  0     0  0
 11 12  2  0     0  0
 12 13  1  0     0  0
 13 14  2  0     0  0
 14 15  1  0     0  0
 15 16  2  0     0  0
 16 17  1  0     0  0
 13 18  1  0     0  0
 17 18  2  0     0  0
 11 19  1  0     0  0
 18 19  1  0     0  0
  7 20  1  0     0  0
  4 21  1  0     0  0
 21 22  1  0     0  0
 22 23  1  0     0  0
 22 24  1  0     0  0
 21 25  1  0     0  0
 25 26  2  0     0  0
 26 27  1  0     0  0
 27 28  2  0     0  0
 28 29  1  0     0  0
 28 30  1  0     0  0
 25 31  1  0     0  0
 30 31  2  0     0  0
 26 32  1  0     0  0
  4 33  1  0     0  0
 32 33  1  0     0  0
  2 34  1  0     0  0
 34 35  1  0     0  0
 35 36  1  0     0  0
M  END
> <Compound>
Mibefradil

> <canonical_smiles>
O=C(O[C@@]1(CCN(CCCC2=NC3=CC=CC=C3N2)C)[C@@H](C(C)C)C4=C(C=C(F)C=C4)CC1)COC

> <standard_type>
pIC50

> <standard_units>
uM

> <standard_relation>
=

> <actual_activity_value>
-0.1553360374650618

> <predicted_activity_value>
nan

> <Publication_ID>
nan

$$$$
32
  CDPL    08252113263D 1   1.00000     0.00000

 32 36  0     0  0            999 V2000
    0.0000    0.0000    0.0000 C   0  0  0  0  0  4           0  0  0
    0.0000    0.0000    0.0000 N   0  0  0  0  0  3           0  0  0
    0.0000    0.0000    0.0000 C   0  0  0  0  0  4           0  0  0
    0.0000    0.0000    0.0000 N   0  0  0  0  0  3           0  0  0
    0.0000    0.0000    0.0000 C   0  0  0  0  0  4           0  0  0
    0.0000    0.0000    0.0000 C   0  0  0  0  0  4           0  0  0
    0.0000    0.0000    0.0000 C   0  0  0  0  0  4           0  0  0
    0.0000    0.0000    0.0000 N   0  0  0  0  0  3           0  0  0
    0.0000    0.0000    0.0000 O   0  0  0  0  0  2           0  0  0
    0.0000    0.0000    0.0000 C   0  0  0  0  0  4           0  0  0
    0.0000    0.0000    0.0000 C   0  0  0  0  0  4           0  0  0
    0.0000    0.0000    0.0000 C   0  0  0  0  0  4           0  0  0
    0.0000    0.0000    0.0000 C   0  0  0  0  0  4           0  0  0
    0.0000    0.0000    0.0000 C   0  0  0  0  0  4           0  0  0
    0.0000    0.0000    0.0000 N   0  0  0  0  0  3           0  0  0
    0.0000    0.0000    0.0000 C   0  0  0  0  0  4           0  0  0
    0.0000    0.0000    0.0000 N   0  0  0  0  0  3           0  0  0
    0.0000    0.0000    0.0000 C   0  0  0  0  0  4           0  0  0
    0.0000    0.0000    0.0000 C   0  0  0  0  0  4           0  0  0
    0.0000    0.0000    0.0000 N   0  0  0  0  0  3           0  0  0
    0.0000    0.0000    0.0000 C   0  0  0  0  0  4           0  0  0
    0.0000    0.0000    0.0000 C   0  0  0  0  0  4           0  0  0
    0.0000    0.0000    0.0000 C   0  0  0  0  0  4           0  0  0
    0.0000    0.0000    0.0000 C   0  0  0  0  0  4           0  0  0
    0.0000    0.0000    0.0000 C   0  0  0  0  0  4           0  0  0
    0.0000    0.0000    0.0000 F   0  0  0  0  0  1           0  0  0
    0.0000    0.0000    0.0000 C   0  0  0  0  0  4           0  0  0
    0.0000    0.0000    0.0000 C   0  0  0  0  0  4           0  0  0
    0.0000    0.0000    0.0000 C   0  0  0  0  0  4           0  0  0
    0.0000    0.0000    0.0000 C   0  0  0  0  0  4           0  0  0
    0.0000    0.0000    0.0000 C   0  0  0  0  0  4           0  0  0
    0.0000    0.0000    0.0000 C   0  0  0  0  0  4           0  0  0
  1  2  1  0     0  0
  2  3  1  0     0  0
  3  4  2  0     0  0
  4  5  1  0     0  0
  5  6  2  0     0  0
  6  7  1  0     0  0
  3  8  1  0     0  0
  7  8  1  0     0  0
  7  9  2  0     0  0
  2 10  1  0     0  0
 10 11  1  0     0  0
 11 12  1  0     0  0
 10 13  1  0     0  0
 13 14  1  0     0  0
 12 15  1  0     0  0
 14 15  1  0     0  0
 15 16  1  0     0  0
 16 17  2  0     0  0
 17 18  1  0     0  0
 18 19  2  0     0  0
 16 20  1  0     0  0
 19 20  1  0     0  0
 20 21  1  0     0  0
 21 22  1  0     0  0
 22 23  2  0     0  0
 23 24  1  0     0  0
 24 25  2  0     0  0
 25 26  1  0     0  0
 25 27  1  0     0  0
 22 28  1  0     0  0
 27 28  2  0     0  0
 19 29  1  0     0  0
 29 30  2  0     0  0
 30 31  1  0     0  0
 18 32  1  0     0  0
 31 32  2  0     0  0
M  END
> <Compound>
Mizolastine

> <canonical_smiles>
CN(C1=NC=CC(N1)=O)C(CC2)CCN2C3=NC4=C(N3CC5=CC=C(F)C=C5)C=CC=C4

> <standard_type>
pIC50

> <standard_units>
uM

> <standard_relation>
=

> <actual_activity_value>
0.45593195564972433

> <predicted_activity_value>
nan

> <Publication_ID>
nan

$$$$
33
  CDPL    08252113263D 1   1.00000     0.00000

 26 28  0     0  0            999 V2000
    0.0000    0.0000    0.0000 F   0  0  0  0  0  1           0  0  0
    0.0000    0.0000    0.0000 C   0  0  0  0  0  4           0  0  0
    0.0000    0.0000    0.0000 F   0  0  0  0  0  1           0  0  0
    0.0000    0.0000    0.0000 C   0  0  0  0  0  4           0  0  0
    0.0000    0.0000    0.0000 C   0  0  0  0  0  4           0  0  0
    0.0000    0.0000    0.0000 C   0  0  0  0  0  4           0  0  0
    0.0000    0.0000    0.0000 C   0  0  0  0  0  4           0  0  0
    0.0000    0.0000    0.0000 C   0  0  0  0  0  4           0  0  0
    0.0000    0.0000    0.0000 C   0  0  0  0  0  4           0  0  0
    0.0000    0.0000    0.0000 C   0  0  0  0  0  4           0  0  0
    0.0000    0.0000    0.0000 C   0  0  1  0  0  4           0  0  0
    0.0000    0.0000    0.0000 C   0  0  2  0  0  4           0  0  0
    0.0000    0.0000    0.0000 N   0  0  0  0  0  3           0  0  0
    0.0000    0.0000    0.0000 C   0  0  0  0  0  4           0  0  0
    0.0000    0.0000    0.0000 C   0  0  0  0  0  4           0  0  0
    0.0000    0.0000    0.0000 C   0  0  0  0  0  4           0  0  0
    0.0000    0.0000    0.0000 C   0  0  0  0  0  4           0  0  0
    0.0000    0.0000    0.0000 O   0  0  0  0  0  2           0  0  0
    0.0000    0.0000    0.0000 C   0  0  0  0  0  4           0  0  0
    0.0000    0.0000    0.0000 C   0  0  0  0  0  4           0  0  0
    0.0000    0.0000    0.0000 C   0  0  0  0  0  4           0  0  0
    0.0000    0.0000    0.0000 F   0  0  0  0  0  1           0  0  0
    0.0000    0.0000    0.0000 F   0  0  0  0  0  1           0  0  0
    0.0000    0.0000    0.0000 F   0  0  0  0  0  1           0  0  0
    0.0000    0.0000    0.0000 N   0  0  0  0  0  3           0  0  0
    0.0000    0.0000    0.0000 F   0  0  0  0  0  1           0  0  0
  1  2  1  0     0  0
  2  3  1  0     0  0
  2  4  1  0     0  0
  4  5  2  0     0  0
  5  6  1  0     0  0
  6  7  2  0     0  0
  4  8  1  0     0  0
  7  9  1  0     0  0
  8  9  2  0     0  0
  9 10  1  0     0  0
 10 11  1  0     0  0
 11 12  1  0     0  0
 12 13  1  0     0  0
 13 14  1  0     0  0
 14 15  1  0     0  0
 15 16  1  0     0  0
 12 17  1  0     0  0
 16 17  1  0     0  0
 11 18  1  0     0  0
 10 19  2  0     0  0
 19 20  1  0     0  0
 20 21  1  0     0  0
 21 22  1  0     0  0
 21 23  1  0     0  0
 21 24  1  0     0  0
  8 25  1  0     0  0
 20 25  2  0     0  0
  2 26  1  0     0  0
M  END
> <Compound>
Mefloquine

> <canonical_smiles>
FC(F)(c(ccc1)c2c1c([C@@H]([C@@H]3NCCCC3)O)cc(C(F)(F)F)n2)F

> <standard_type>
pIC50

> <standard_units>
uM

> <standard_relation>
=

> <actual_activity_value>
-0.42160392686983106

> <predicted_activity_value>
nan

> <Publication_ID>
nan

$$$$
34
  CDPL    08252113263D 1   1.00000     0.00000

 29 33  0     0  0            999 V2000
    0.0000    0.0000    0.0000 C   0  0  0  0  0  4           0  0  0
    0.0000    0.0000    0.0000 O   0  0  0  0  0  2           0  0  0
    0.0000    0.0000    0.0000 C   0  0  0  0  0  4           0  0  0
    0.0000    0.0000    0.0000 C   0  0  0  0  0  4           0  0  0
    0.0000    0.0000    0.0000 N   0  0  0  0  0  3           0  0  0
    0.0000    0.0000    0.0000 C   0  0  0  0  0  4           0  0  0
    0.0000    0.0000    0.0000 C   0  0  2  0  0  4           0  0  0
    0.0000    0.0000    0.0000 C   0  0  0  0  0  4           0  0  0
    0.0000    0.0000    0.0000 C   0  0  0  0  0  4           0  0  0
    0.0000    0.0000    0.0000 C   0  0  0  0  0  4           0  0  0
    0.0000    0.0000    0.0000 N   0  0  0  0  0  3           0  0  0
    0.0000    0.0000    0.0000 C   0  0  2  0  0  4           0  0  0
    0.0000    0.0000    0.0000 C   0  0  0  0  0  4           0  0  0
    0.0000    0.0000    0.0000 C   0  0  0  0  0  4           0  0  0
    0.0000    0.0000    0.0000 F   0  0  0  0  0  1           0  0  0
    0.0000    0.0000    0.0000 C   0  0  0  0  0  4           0  0  0
    0.0000    0.0000    0.0000 C   0  0  0  0  0  4           0  0  0
    0.0000    0.0000    0.0000 C   0  0  0  0  0  4           0  0  0
    0.0000    0.0000    0.0000 O   0  0  0  0  0  2           0  0  0
    0.0000    0.0000    0.0000 C   0  0  0  0  0  4           0  0  0
    0.0000    0.0000    0.0000 C   0  0  0  0  0  4           0  0  0
    0.0000    0.0000    0.0000 O   0  0  0  0  0  2           0  0  0
    0.0000    0.0000    0.0000 O   0  0  0  0  0  2           0  0  0
    0.0000    0.0000    0.0000 C   0  0  0  0  0  4           0  0  0
    0.0000    0.0000    0.0000 N   0  0  0  0  0  3           0  0  0
    0.0000    0.0000    0.0000 C   0  0  0  0  0  4           0  0  0
    0.0000    0.0000    0.0000 C   0  0  0  0  0  4           0  0  0
    0.0000    0.0000    0.0000 C   0  0  0  0  0  4           0  0  0
    0.0000    0.0000    0.0000 C   0  0  0  0  0  4           0  0  0
  1  2  1  0     0  0
  2  3  1  0     0  0
  3  4  2  0     0  0
  4  5  1  0     0  0
  5  6  1  0     0  0
  6  7  1  0     0  0
  7  8  1  0     0  0
  8  9  1  0     0  0
  9 10  1  0     0  0
 10 11  1  0     0  0
  7 12  1  0     0  0
 11 12  1  0     0  0
  5 13  1  0     0  0
 12 13  1  0     0  0
  4 14  1  0     0  0
 14 15  1  0     0  0
 14 16  2  0     0  0
 16 17  1  0     0  0
 17 18  1  0     0  0
 18 19  2  0     0  0
 18 20  1  0     0  0
 20 21  1  0     0  0
 21 22  1  0     0  0
 21 23  2  0     0  0
 20 24  2  0     0  0
 24 25  1  0     0  0
 25 26  1  0     0  0
 26 27  1  0     0  0
 26 28  1  0     0  0
 27 28  1  0     0  0
  3 29  1  0     0  0
 17 29  2  0     0  0
 25 29  1  0     0  0
M  END
> <Compound>
Moxifloxacin

> <canonical_smiles>
COc1c(N2C[C@@H]3CCCN[C@@H]3C2)c(F)cc4c(=O)c(C(O)=O)cn(C5CC5)c14

> <standard_type>
pIC50

> <standard_units>
uM

> <standard_relation>
=

> <actual_activity_value>
-2.110589710299249

> <predicted_activity_value>
nan

> <Publication_ID>
nan

$$$$
35
  CDPL    08252113263D 1   1.00000     0.00000

 22 25  0     0  0            999 V2000
    0.0000    0.0000    0.0000 Cl  0  0  0  0  0  1           0  0  0
    0.0000    0.0000    0.0000 C   0  0  0  0  0  4           0  0  0
    0.0000    0.0000    0.0000 C   0  0  0  0  0  4           0  0  0
    0.0000    0.0000    0.0000 C   0  0  0  0  0  4           0  0  0
    0.0000    0.0000    0.0000 C   0  0  0  0  0  4           0  0  0
    0.0000    0.0000    0.0000 C   0  0  0  0  0  4           0  0  0
    0.0000    0.0000    0.0000 C   0  0  0  0  0  4           0  0  0
    0.0000    0.0000    0.0000 N   0  0  0  0  0  3           0  0  0
    0.0000    0.0000    0.0000 C   0  0  0  0  0  4           0  0  0
    0.0000    0.0000    0.0000 C   0  0  0  0  0  4           0  0  0
    0.0000    0.0000    0.0000 C   0  0  0  0  0  4           0  0  0
    0.0000    0.0000    0.0000 C   0  0  0  0  0  4           0  0  0
    0.0000    0.0000    0.0000 C   0  0  0  0  0  4           0  0  0
    0.0000    0.0000    0.0000 C   0  0  0  0  0  4           0  0  0
    0.0000    0.0000    0.0000 N   0  0  0  0  0  3           0  0  0
    0.0000    0.0000    0.0000 C   0  0  0  0  0  4           0  0  0
    0.0000    0.0000    0.0000 N   0  0  0  0  0  3           0  0  0
    0.0000    0.0000    0.0000 C   0  0  0  0  0  4           0  0  0
    0.0000    0.0000    0.0000 C   0  0  0  0  0  4           0  0  0
    0.0000    0.0000    0.0000 N   0  0  0  0  0  3           0  0  0
    0.0000    0.0000    0.0000 C   0  0  0  0  0  4           0  0  0
    0.0000    0.0000    0.0000 C   0  0  0  0  0  4           0  0  0
  1  2  1  0     0  0
  2  3  2  0     0  0
  3  4  1  0     0  0
  4  5  2  0     0  0
  5  6  1  0     0  0
  2  7  1  0     0  0
  6  7  2  0     0  0
  5  8  1  0     0  0
  8  9  1  0     0  0
  9 10  2  0     0  0
 10 11  1  0     0  0
 11 12  2  0     0  0
 12 13  1  0     0  0
  9 14  1  0     0  0
 13 14  2  0     0  0
 10 15  1  0     0  0
  4 16  1  0     0  0
 15 16  2  0     0  0
 16 17  1  0     0  0
 17 18  1  0     0  0
 18 19  1  0     0  0
 19 20  1  0     0  0
 20 21  1  0     0  0
 17 22  1  0     0  0
 21 22  1  0     0  0
M  END
> <Compound>
N-desmethyl-clozapine

> <canonical_smiles>
ClC1=CC2=C(C=C1)NC3=C(C=CC=C3)N=C2N4CCNCC4

> <standard_type>
pIC50

> <standard_units>
uM

> <standard_relation>
=

> <actual_activity_value>
-0.6522463410033232

> <predicted_activity_value>
nan

> <Publication_ID>
nan

$$$$
36
  CDPL    08252113263D 1   1.00000     0.00000

 26 29  0     0  0            999 V2000
    0.0000    0.0000    0.0000 F   0  0  0  0  0  1           0  0  0
    0.0000    0.0000    0.0000 C   0  0  0  0  0  4           0  0  0
    0.0000    0.0000    0.0000 C   0  0  0  0  0  4           0  0  0
    0.0000    0.0000    0.0000 N   0  0  0  0  0  3           0  0  0
    0.0000    0.0000    0.0000 C   0  0  0  0  0  4           0  0  0
    0.0000    0.0000    0.0000 C   0  0  0  0  0  4           0  0  0
    0.0000    0.0000    0.0000 N   0  0  0  0  0  3           0  0  0
    0.0000    0.0000    0.0000 C   0  0  0  0  0  4           0  0  0
    0.0000    0.0000    0.0000 C   0  0  0  0  0  4           0  0  0
    0.0000    0.0000    0.0000 C   0  0  0  0  0  4           0  0  0
    0.0000    0.0000    0.0000 C   0  0  0  0  0  4           0  0  0
    0.0000    0.0000    0.0000 C   0  0  0  0  0  4           0  0  0
    0.0000    0.0000    0.0000 C   0  0  0  0  0  4           0  0  0
    0.0000    0.0000    0.0000 C   0  0  0  0  0  4           0  0  0
    0.0000    0.0000    0.0000 C   0  0  0  0  0  4           0  0  0
    0.0000    0.0000    0.0000 C   0  0  0  0  0  4           0  0  0
    0.0000    0.0000    0.0000 O   0  0  0  0  0  2           0  0  0
    0.0000    0.0000    0.0000 O   0  0  0  0  0  2           0  0  0
    0.0000    0.0000    0.0000 C   0  0  0  0  0  4           0  0  0
    0.0000    0.0000    0.0000 N   0  0  0  0  0  3           0  0  0
    0.0000    0.0000    0.0000 C   0  0  0  0  0  4           0  0  0
    0.0000    0.0000    0.0000 C   0  0  0  0  0  4           0  0  0
    0.0000    0.0000    0.0000 C   0  0  0  0  0  4           0  0  0
    0.0000    0.0000    0.0000 O   0  0  0  0  0  2           0  0  0
    0.0000    0.0000    0.0000 O   0  0  0  0  0  2           0  0  0
    0.0000    0.0000    0.0000 C   0  0  0  0  0  4           0  0  0
  1  2  1  0     0  0
  2  3  2  0     0  0
  3  4  1  0     0  0
  4  5  1  0     0  0
  5  6  1  0     0  0
  6  7  1  0     0  0
  7  8  1  0     0  0
  7  9  1  0     0  0
  4 10  1  0     0  0
  9 10  1  0     0  0
  3 11  1  0     0  0
 11 12  2  0     0  0
 12 13  1  0     0  0
 13 14  1  0     0  0
 14 15  1  0     0  0
 15 16  1  0     0  0
 16 17  1  0     0  0
 16 18  2  0     0  0
 15 19  2  0     0  0
 12 20  1  0     0  0
 19 20  1  0     0  0
 20 21  1  0     0  0
 21 22  1  0     0  0
 21 23  1  0     0  0
 11 24  1  0     0  0
 23 24  1  0     0  0
 14 25  2  0     0  0
  2 26  1  0     0  0
 13 26  2  0     0  0
M  END
> <Compound>
Ofloxacin

> <canonical_smiles>
FC1=C(N2CCN(C)CC2)C3=C4C(C(C(C(O)=O)=CN4C(C)CO3)=O)=C1

> <standard_type>
pIC50

> <standard_units>
uM

> <standard_relation>
=

> <actual_activity_value>
-3.1522883443830563

> <predicted_activity_value>
nan

> <Publication_ID>
nan

$$$$
37
  CDPL    08252113263D 1   1.00000     0.00000

 22 25  0     0  0            999 V2000
    0.0000    0.0000    0.0000 C   0  0  0  0  0  4           0  0  0
    0.0000    0.0000    0.0000 N   0  0  0  0  0  3           0  0  0
    0.0000    0.0000    0.0000 C   0  0  0  0  0  4           0  0  0
    0.0000    0.0000    0.0000 C   0  0  0  0  0  4           0  0  0
    0.0000    0.0000    0.0000 N   0  0  0  0  0  3           0  0  0
    0.0000    0.0000    0.0000 C   0  0  0  0  0  4           0  0  0
    0.0000    0.0000    0.0000 C   0  0  0  0  0  4           0  0  0
    0.0000    0.0000    0.0000 C   0  0  0  0  0  4           0  0  0
    0.0000    0.0000    0.0000 N   0  0  0  0  0  3           0  0  0
    0.0000    0.0000    0.0000 C   0  0  0  0  0  4           0  0  0
    0.0000    0.0000    0.0000 C   0  0  0  0  0  4           0  0  0
    0.0000    0.0000    0.0000 C   0  0  0  0  0  4           0  0  0
    0.0000    0.0000    0.0000 C   0  0  0  0  0  4           0  0  0
    0.0000    0.0000    0.0000 C   0  0  0  0  0  4           0  0  0
    0.0000    0.0000    0.0000 C   0  0  0  0  0  4           0  0  0
    0.0000    0.0000    0.0000 N   0  0  0  0  0  3           0  0  0
    0.0000    0.0000    0.0000 C   0  0  0  0  0  4           0  0  0
    0.0000    0.0000    0.0000 C   0  0  0  0  0  4           0  0  0
    0.0000    0.0000    0.0000 C   0  0  0  0  0  4           0  0  0
    0.0000    0.0000    0.0000 C   0  0  0  0  0  4           0  0  0
    0.0000    0.0000    0.0000 S   0  0  0  0  0  2           0  0  0
    0.0000    0.0000    0.0000 C   0  0  0  0  0  4           0  0  0
  1  2  1  0     0  0
  2  3  1  0     0  0
  3  4  1  0     0  0
  4  5  1  0     0  0
  5  6  1  0     0  0
  2  7  1  0     0  0
  6  7  1  0     0  0
  5  8  1  0     0  0
  8  9  2  0     0  0
  9 10  1  0     0  0
 10 11  2  0     0  0
 11 12  1  0     0  0
 12 13  2  0     0  0
 13 14  1  0     0  0
 10 15  1  0     0  0
 14 15  2  0     0  0
 15 16  1  0     0  0
 16 17  1  0     0  0
  8 18  1  0     0  0
 17 18  2  0     0  0
 18 19  1  0     0  0
 19 20  2  0     0  0
 17 21  1  0     0  0
 20 21  1  0     0  0
 20 22  1  0     0  0
M  END
> <Compound>
Olanzapine

> <canonical_smiles>
CN1CCN(CC1)C2=NC3=CC=CC=C3NC4=C2C=C(S4)C

> <standard_type>
pIC50

> <standard_units>
uM

> <standard_relation>
=

> <actual_activity_value>
-0.7788744720027395

> <predicted_activity_value>
nan

> <Publication_ID>
nan

$$$$
38
  CDPL    08252113263D 1   1.00000     0.00000

 22 25  0     0  0            999 V2000
    0.0000    0.0000    0.0000 C   0  0  0  0  0  4           0  0  0
    0.0000    0.0000    0.0000 C   0  0  0  0  0  4           0  0  0
    0.0000    0.0000    0.0000 N   0  0  0  0  0  3           0  0  0
    0.0000    0.0000    0.0000 C   0  0  0  0  0  4           0  0  0
    0.0000    0.0000    0.0000 C   0  0  0  0  0  4           0  0  0
    0.0000    0.0000    0.0000 N   0  0  0  0  0  3           0  0  0
    0.0000    0.0000    0.0000 C   0  0  0  0  0  4           0  0  0
    0.0000    0.0000    0.0000 C   0  0  0  0  0  4           0  0  0
    0.0000    0.0000    0.0000 C   0  0  0  0  0  4           0  0  0
    0.0000    0.0000    0.0000 C   0  0  0  0  0  4           0  0  0
    0.0000    0.0000    0.0000 C   0  0  0  0  0  4           0  0  0
    0.0000    0.0000    0.0000 C   0  0  0  0  0  4           0  0  0
    0.0000    0.0000    0.0000 C   0  0  0  0  0  4           0  0  0
    0.0000    0.0000    0.0000 C   0  0  0  0  0  4           0  0  0
    0.0000    0.0000    0.0000 C   0  0  0  0  0  4           0  0  0
    0.0000    0.0000    0.0000 C   0  0  0  0  0  4           0  0  0
    0.0000    0.0000    0.0000 C   0  0  0  0  0  4           0  0  0
    0.0000    0.0000    0.0000 C   0  0  0  0  0  4           0  0  0
    0.0000    0.0000    0.0000 N   0  0  0  0  0  3           0  0  0
    0.0000    0.0000    0.0000 C   0  0  0  0  0  4           0  0  0
    0.0000    0.0000    0.0000 C   0  0  0  0  0  4           0  0  0
    0.0000    0.0000    0.0000 O   0  0  0  0  0  2           0  0  0
  1  2  1  0     0  0
  2  3  2  0     0  0
  3  4  1  0     0  0
  4  5  2  0     0  0
  2  6  1  0     0  0
  5  6  1  0     0  0
  6  7  1  0     0  0
  7  8  1  0     0  0
  8  9  1  0     0  0
  9 10  1  0     0  0
 10 11  1  0     0  0
 11 12  2  0     0  0
 12 13  1  0     0  0
 13 14  2  0     0  0
 14 15  1  0     0  0
 15 16  2  0     0  0
 16 17  1  0     0  0
 13 18  1  0     0  0
 17 18  2  0     0  0
 11 19  1  0     0  0
 18 19  1  0     0  0
 19 20  1  0     0  0
  8 21  1  0     0  0
 12 21  1  0     0  0
 21 22  2  0     0  0
M  END
> <Compound>
Ondansetron

> <canonical_smiles>
CC1=NC=CN1CC2CCC3=C(C4=CC=CC=C4N3C)C2=O

> <standard_type>
pIC50

> <standard_units>
uM

> <standard_relation>
=

> <actual_activity_value>
0.09151498112135022

> <predicted_activity_value>
nan

> <Publication_ID>
nan

$$$$
39
  CDPL    08252113263D 1   1.00000     0.00000

 20 22  0     0  0            999 V2000
    0.0000    0.0000    0.0000 C   0  0  0  0  0  4           0  0  0
    0.0000    0.0000    0.0000 C   0  0  0  0  0  4           0  0  0
    0.0000    0.0000    0.0000 C   0  0  0  0  0  4           0  0  0
    0.0000    0.0000    0.0000 C   0  0  0  0  0  4           0  0  0
    0.0000    0.0000    0.0000 C   0  0  0  0  0  4           0  0  0
    0.0000    0.0000    0.0000 C   0  0  0  0  0  4           0  0  0
    0.0000    0.0000    0.0000 C   0  0  0  0  0  4           0  0  0
    0.0000    0.0000    0.0000 C   0  0  0  0  0  4           0  0  0
    0.0000    0.0000    0.0000 C   0  0  0  0  0  4           0  0  0
    0.0000    0.0000    0.0000 C   0  0  0  0  0  4           0  0  0
    0.0000    0.0000    0.0000 C   0  0  0  0  0  4           0  0  0
    0.0000    0.0000    0.0000 C   0  0  0  0  0  4           0  0  0
    0.0000    0.0000    0.0000 C   0  0  0  0  0  4           0  0  0
    0.0000    0.0000    0.0000 C   0  0  0  0  0  4           0  0  0
    0.0000    0.0000    0.0000 N   0  0  0  0  0  3           0  0  0
    0.0000    0.0000    0.0000 C   0  0  0  0  0  4           0  0  0
    0.0000    0.0000    0.0000 C   0  0  0  0  0  4           0  0  0
    0.0000    0.0000    0.0000 C   0  0  0  0  0  4           0  0  0
    0.0000    0.0000    0.0000 C   0  0  0  0  0  4           0  0  0
    0.0000    0.0000    0.0000 C   0  0  0  0  0  4           0  0  0
  1  2  1  0     0  0
  2  3  1  0     0  0
  3  4  1  0     0  0
  4  5  1  0     0  0
  5  6  1  0     0  0
  6  7  1  0     0  0
  3  8  1  0     0  0
  7  8  1  0     0  0
  2  9  1  0     0  0
  9 10  1  0     0  0
 10 11  1  0     0  0
 11 12  1  0     0  0
 12 13  1  0     0  0
 13 14  1  0     0  0
 10 15  1  0     0  0
 14 15  1  0     0  0
  1 16  1  0     0  0
 16 17  1  0     0  0
 17 18  1  0     0  0
 18 19  1  0     0  0
  1 20  1  0     0  0
 19 20  1  0     0  0
M  END
> <Compound>
Perhexiline

> <canonical_smiles>
C1(C(C2CCCCC2)CC3CCCCN3)CCCCC1

> <standard_type>
pIC50

> <standard_units>
uM

> <standard_relation>
=

> <actual_activity_value>
-0.8920946026904804

> <predicted_activity_value>
nan

> <Publication_ID>
nan

$$$$
40
  CDPL    08252113263D 1   1.00000     0.00000

 17 18  0     0  0            999 V2000
    0.0000    0.0000    0.0000 O   0  0  0  0  0  2           0  0  0
    0.0000    0.0000    0.0000 C   0  0  0  0  0  4           0  0  0
    0.0000    0.0000    0.0000 N   0  0  0  0  0  3           0  0  0
    0.0000    0.0000    0.0000 C   0  0  0  0  0  4           0  0  0
    0.0000    0.0000    0.0000 O   0  0  0  0  0  2           0  0  0
    0.0000    0.0000    0.0000 N   0  0  0  0  0  3           0  0  0
    0.0000    0.0000    0.0000 C   0  0  0  0  0  4           0  0  0
    0.0000    0.0000    0.0000 C   0  0  0  0  0  4           0  0  0
    0.0000    0.0000    0.0000 C   0  0  0  0  0  4           0  0  0
    0.0000    0.0000    0.0000 C   0  0  0  0  0  4           0  0  0
    0.0000    0.0000    0.0000 C   0  0  0  0  0  4           0  0  0
    0.0000    0.0000    0.0000 C   0  0  0  0  0  4           0  0  0
    0.0000    0.0000    0.0000 C   0  0  0  0  0  4           0  0  0
    0.0000    0.0000    0.0000 C   0  0  0  0  0  4           0  0  0
    0.0000    0.0000    0.0000 C   0  0  0  0  0  4           0  0  0
    0.0000    0.0000    0.0000 C   0  0  0  0  0  4           0  0  0
    0.0000    0.0000    0.0000 O   0  0  0  0  0  2           0  0  0
  1  2  2  0     0  0
  2  3  1  0     0  0
  3  4  1  0     0  0
  4  5  2  0     0  0
  2  6  1  0     0  0
  6  7  1  0     0  0
  4  8  1  0     0  0
  7  8  1  0     0  0
  8  9  1  0     0  0
  9 10  2  0     0  0
 10 11  1  0     0  0
 11 12  2  0     0  0
 12 13  1  0     0  0
  9 14  1  0     0  0
 13 14  2  0     0  0
  8 15  1  0     0  0
 15 16  1  0     0  0
  7 17  2  0     0  0
M  END
> <Compound>
Phenobarbital

> <canonical_smiles>
O=C(NC1=O)NC(C1(C2=CC=CC=C2)CC)=O

> <standard_type>
pIC50

> <standard_units>
uM

> <standard_relation>
=

> <actual_activity_value>
-0.47712125471966244

> <predicted_activity_value>
nan

> <Publication_ID>
nan

$$$$
41
  CDPL    08252113263D 1   1.00000     0.00000

 19 21  0     0  0            999 V2000
    0.0000    0.0000    0.0000 O   0  0  0  0  0  2           0  0  0
    0.0000    0.0000    0.0000 C   0  0  0  0  0  4           0  0  0
    0.0000    0.0000    0.0000 N   0  0  0  0  0  3           0  0  0
    0.0000    0.0000    0.0000 C   0  0  0  0  0  4           0  0  0
    0.0000    0.0000    0.0000 C   0  0  0  0  0  4           0  0  0
    0.0000    0.0000    0.0000 C   0  0  0  0  0  4           0  0  0
    0.0000    0.0000    0.0000 C   0  0  0  0  0  4           0  0  0
    0.0000    0.0000    0.0000 C   0  0  0  0  0  4           0  0  0
    0.0000    0.0000    0.0000 C   0  0  0  0  0  4           0  0  0
    0.0000    0.0000    0.0000 C   0  0  0  0  0  4           0  0  0
    0.0000    0.0000    0.0000 C   0  0  0  0  0  4           0  0  0
    0.0000    0.0000    0.0000 N   0  0  0  0  0  3           0  0  0
    0.0000    0.0000    0.0000 C   0  0  0  0  0  4           0  0  0
    0.0000    0.0000    0.0000 C   0  0  0  0  0  4           0  0  0
    0.0000    0.0000    0.0000 C   0  0  0  0  0  4           0  0  0
    0.0000    0.0000    0.0000 C   0  0  0  0  0  4           0  0  0
    0.0000    0.0000    0.0000 C   0  0  0  0  0  4           0  0  0
    0.0000    0.0000    0.0000 C   0  0  0  0  0  4           0  0  0
    0.0000    0.0000    0.0000 O   0  0  0  0  0  2           0  0  0
  1  2  2  0     0  0
  2  3  1  0     0  0
  3  4  1  0     0  0
  4  5  1  0     0  0
  5  6  1  0     0  0
  6  7  2  0     0  0
  7  8  1  0     0  0
  8  9  2  0     0  0
  9 10  1  0     0  0
  6 11  1  0     0  0
 10 11  2  0     0  0
  2 12  1  0     0  0
  5 12  1  0     0  0
  5 13  1  0     0  0
 13 14  2  0     0  0
 14 15  1  0     0  0
 15 16  2  0     0  0
 16 17  1  0     0  0
 13 18  1  0     0  0
 17 18  2  0     0  0
  4 19  2  0     0  0
M  END
> <Compound>
Phenytoin

> <canonical_smiles>
O=C1NC(C(C2=CC=CC=C2)(N1)C3=CC=CC=C3)=O

> <standard_type>
pIC50

> <standard_units>
uM

> <standard_relation>
=

> <actual_activity_value>
-2.380211241711606

> <predicted_activity_value>
nan

> <Publication_ID>
nan

$$$$
42
  CDPL    08252113263D 1   1.00000     0.00000

 34 38  0     0  0            999 V2000
    0.0000    0.0000    0.0000 O   0  0  0  0  0  2           0  0  0
    0.0000    0.0000    0.0000 C   0  0  0  0  0  4           0  0  0
    0.0000    0.0000    0.0000 N   0  0  0  0  0  3           0  0  0
    0.0000    0.0000    0.0000 C   0  0  0  0  0  4           0  0  0
    0.0000    0.0000    0.0000 C   0  0  0  0  0  4           0  0  0
    0.0000    0.0000    0.0000 C   0  0  0  0  0  4           0  0  0
    0.0000    0.0000    0.0000 N   0  0  0  0  0  3           0  0  0
    0.0000    0.0000    0.0000 C   0  0  0  0  0  4           0  0  0
    0.0000    0.0000    0.0000 C   0  0  0  0  0  4           0  0  0
    0.0000    0.0000    0.0000 C   0  0  0  0  0  4           0  0  0
    0.0000    0.0000    0.0000 C   0  0  0  0  0  4           0  0  0
    0.0000    0.0000    0.0000 C   0  0  0  0  0  4           0  0  0
    0.0000    0.0000    0.0000 C   0  0  0  0  0  4           0  0  0
    0.0000    0.0000    0.0000 C   0  0  0  0  0  4           0  0  0
    0.0000    0.0000    0.0000 C   0  0  0  0  0  4           0  0  0
    0.0000    0.0000    0.0000 F   0  0  0  0  0  1           0  0  0
    0.0000    0.0000    0.0000 C   0  0  0  0  0  4           0  0  0
    0.0000    0.0000    0.0000 C   0  0  0  0  0  4           0  0  0
    0.0000    0.0000    0.0000 C   0  0  0  0  0  4           0  0  0
    0.0000    0.0000    0.0000 C   0  0  0  0  0  4           0  0  0
    0.0000    0.0000    0.0000 C   0  0  0  0  0  4           0  0  0
    0.0000    0.0000    0.0000 C   0  0  0  0  0  4           0  0  0
    0.0000    0.0000    0.0000 F   0  0  0  0  0  1           0  0  0
    0.0000    0.0000    0.0000 C   0  0  0  0  0  4           0  0  0
    0.0000    0.0000    0.0000 C   0  0  0  0  0  4           0  0  0
    0.0000    0.0000    0.0000 C   0  0  0  0  0  4           0  0  0
    0.0000    0.0000    0.0000 C   0  0  0  0  0  4           0  0  0
    0.0000    0.0000    0.0000 C   0  0  0  0  0  4           0  0  0
    0.0000    0.0000    0.0000 C   0  0  0  0  0  4           0  0  0
    0.0000    0.0000    0.0000 C   0  0  0  0  0  4           0  0  0
    0.0000    0.0000    0.0000 C   0  0  0  0  0  4           0  0  0
    0.0000    0.0000    0.0000 C   0  0  0  0  0  4           0  0  0
    0.0000    0.0000    0.0000 C   0  0  0  0  0  4           0  0  0
    0.0000    0.0000    0.0000 N   0  0  0  0  0  3           0  0  0
  1  2  2  0     0  0
  2  3  1  0     0  0
  3  4  1  0     0  0
  4  5  1  0     0  0
  5  6  1  0     0  0
  6  7  1  0     0  0
  7  8  1  0     0  0
  8  9  1  0     0  0
  9 10  1  0     0  0
 10 11  1  0     0  0
 11 12  1  0     0  0
 12 13  2  0     0  0
 13 14  1  0     0  0
 14 15  2  0     0  0
 15 16  1  0     0  0
 15 17  1  0     0  0
 12 18  1  0     0  0
 17 18  2  0     0  0
 11 19  1  0     0  0
 19 20  2  0     0  0
 20 21  1  0     0  0
 21 22  2  0     0  0
 22 23  1  0     0  0
 22 24  1  0     0  0
 19 25  1  0     0  0
 24 25  2  0     0  0
  7 26  1  0     0  0
  4 27  1  0     0  0
 26 27  1  0     0  0
  3 28  1  0     0  0
 28 29  2  0     0  0
 29 30  1  0     0  0
 30 31  2  0     0  0
 31 32  1  0     0  0
 28 33  1  0     0  0
 32 33  2  0     0  0
  2 34  1  0     0  0
 33 34  1  0     0  0
M  END
> <Compound>
Pimozide

> <canonical_smiles>
O=C1N(C2CCN(CCCC(C3=CC=C(F)C=C3)C4=CC=C(F)C=C4)CC2)C5=CC=CC=C5N1

> <standard_type>
pIC50

> <standard_units>
uM

> <standard_relation>
=

> <actual_activity_value>
1.744727494896694

> <predicted_activity_value>
nan

> <Publication_ID>
nan

$$$$
43
  CDPL    08252113263D 1   1.00000     0.00000

 25 26  0     0  0            999 V2000
    0.0000    0.0000    0.0000 C   0  0  0  0  0  4           0  0  0
    0.0000    0.0000    0.0000 C   0  0  0  0  0  4           0  0  0
    0.0000    0.0000    0.0000 C   0  0  0  0  0  4           0  0  0
    0.0000    0.0000    0.0000 N   0  0  0  0  0  3           0  0  0
    0.0000    0.0000    0.0000 C   0  0  0  0  0  4           0  0  0
    0.0000    0.0000    0.0000 C   0  0  0  0  0  4           0  0  0
    0.0000    0.0000    0.0000 C   0  0  0  0  0  4           0  0  0
    0.0000    0.0000    0.0000 O   0  0  0  0  0  2           0  0  0
    0.0000    0.0000    0.0000 C   0  0  0  0  0  4           0  0  0
    0.0000    0.0000    0.0000 C   0  0  0  0  0  4           0  0  0
    0.0000    0.0000    0.0000 C   0  0  0  0  0  4           0  0  0
    0.0000    0.0000    0.0000 C   0  0  0  0  0  4           0  0  0
    0.0000    0.0000    0.0000 C   0  0  0  0  0  4           0  0  0
    0.0000    0.0000    0.0000 C   0  0  0  0  0  4           0  0  0
    0.0000    0.0000    0.0000 C   0  0  0  0  0  4           0  0  0
    0.0000    0.0000    0.0000 C   0  0  0  0  0  4           0  0  0
    0.0000    0.0000    0.0000 C   0  0  0  0  0  4           0  0  0
    0.0000    0.0000    0.0000 C   0  0  0  0  0  4           0  0  0
    0.0000    0.0000    0.0000 C   0  0  0  0  0  4           0  0  0
    0.0000    0.0000    0.0000 C   0  0  0  0  0  4           0  0  0
    0.0000    0.0000    0.0000 C   0  0  0  0  0  4           0  0  0
    0.0000    0.0000    0.0000 C   0  0  0  0  0  4           0  0  0
    0.0000    0.0000    0.0000 C   0  0  0  0  0  4           0  0  0
    0.0000    0.0000    0.0000 O   0  0  0  0  0  2           0  0  0
    0.0000    0.0000    0.0000 O   0  0  0  0  0  2           0  0  0
  1  2  1  0     0  0
  2  3  1  0     0  0
  3  4  1  0     0  0
  4  5  1  0     0  0
  5  6  1  0     0  0
  6  7  1  0     0  0
  7  8  1  0     0  0
  8  9  1  0     0  0
  9 10  2  0     0  0
 10 11  1  0     0  0
 11 12  2  0     0  0
 12 13  1  0     0  0
  9 14  1  0     0  0
 13 14  2  0     0  0
 14 15  1  0     0  0
 15 16  1  0     0  0
 16 17  1  0     0  0
 17 18  1  0     0  0
 18 19  2  0     0  0
 19 20  1  0     0  0
 20 21  2  0     0  0
 21 22  1  0     0  0
 18 23  1  0     0  0
 22 23  2  0     0  0
 15 24  2  0     0  0
  6 25  1  0     0  0
M  END
> <Compound>
Propafenone

> <canonical_smiles>
CCCNCC(COC1=CC=CC=C1C(CCC2=CC=CC=C2)=O)O

> <standard_type>
pIC50

> <standard_units>
uM

> <standard_relation>
=

> <actual_activity_value>
0.3565473235138126

> <predicted_activity_value>
nan

> <Publication_ID>
nan

$$$$
44
  CDPL    08252113263D 1   1.00000     0.00000

 21 22  0     0  0            999 V2000
    0.0000    0.0000    0.0000 C   0  0  0  0  0  4           0  0  0
    0.0000    0.0000    0.0000 N   0  0  0  0  0  3           0  0  0
    0.0000    0.0000    0.0000 C   0  0  0  0  0  4           0  0  0
    0.0000    0.0000    0.0000 C   0  0  0  0  0  4           0  0  0
    0.0000    0.0000    0.0000 C   0  0  0  0  0  4           0  0  0
    0.0000    0.0000    0.0000 N   0  0  0  0  0  3           0  0  0
    0.0000    0.0000    0.0000 C   0  0  0  0  0  4           0  0  0
    0.0000    0.0000    0.0000 C   0  0  0  0  0  4           0  0  0
    0.0000    0.0000    0.0000 C   0  0  0  0  0  4           0  0  0
    0.0000    0.0000    0.0000 C   0  0  0  0  0  4           0  0  0
    0.0000    0.0000    0.0000 C   0  0  0  0  0  4           0  0  0
    0.0000    0.0000    0.0000 O   0  0  0  0  0  2           0  0  0
    0.0000    0.0000    0.0000 C   0  0  0  0  0  4           0  0  0
    0.0000    0.0000    0.0000 C   0  0  0  0  0  4           0  0  0
    0.0000    0.0000    0.0000 C   0  0  0  0  0  4           0  0  0
    0.0000    0.0000    0.0000 C   0  0  0  0  0  4           0  0  0
    0.0000    0.0000    0.0000 N   0  0  0  0  0  3           0  0  0
    0.0000    0.0000    0.0000 C   0  0  0  0  0  4           0  0  0
    0.0000    0.0000    0.0000 C   0  0  0  0  0  4           0  0  0
    0.0000    0.0000    0.0000 C   0  0  0  0  0  4           0  0  0
    0.0000    0.0000    0.0000 C   0  0  0  0  0  4           0  0  0
  1  2  1  0     0  0
  2  3  1  0     0  0
  2  4  1  0     0  0
  4  5  1  0     0  0
  5  6  1  0     0  0
  6  7  1  0     0  0
  7  8  1  0     0  0
  8  9  2  0     0  0
  9 10  1  0     0  0
 10 11  2  0     0  0
 11 12  1  0     0  0
 12 13  1  0     0  0
 11 14  1  0     0  0
  8 15  1  0     0  0
 14 15  2  0     0  0
  6 16  1  0     0  0
 16 17  2  0     0  0
 17 18  1  0     0  0
 18 19  2  0     0  0
 19 20  1  0     0  0
 16 21  1  0     0  0
 20 21  2  0     0  0
M  END
> <Compound>
Pyrilamine

> <canonical_smiles>
CN(C)CCN(CC1=CC=C(OC)C=C1)C2=NC=CC=C2

> <standard_type>
pIC50

> <standard_units>
uM

> <standard_relation>
=

> <actual_activity_value>
-0.04139268515822508

> <predicted_activity_value>
nan

> <Publication_ID>
nan

$$$$
45
  CDPL    08252113263D 1   1.00000     0.00000

 27 30  0     0  0            999 V2000
    0.0000    0.0000    0.0000 O   0  0  0  0  0  2           0  0  0
    0.0000    0.0000    0.0000 C   0  0  0  0  0  4           0  0  0
    0.0000    0.0000    0.0000 C   0  0  0  0  0  4           0  0  0
    0.0000    0.0000    0.0000 O   0  0  0  0  0  2           0  0  0
    0.0000    0.0000    0.0000 C   0  0  0  0  0  4           0  0  0
    0.0000    0.0000    0.0000 C   0  0  0  0  0  4           0  0  0
    0.0000    0.0000    0.0000 N   0  0  0  0  0  3           0  0  0
    0.0000    0.0000    0.0000 C   0  0  0  0  0  4           0  0  0
    0.0000    0.0000    0.0000 C   0  0  0  0  0  4           0  0  0
    0.0000    0.0000    0.0000 C   0  0  0  0  0  4           0  0  0
    0.0000    0.0000    0.0000 C   0  0  0  0  0  4           0  0  0
    0.0000    0.0000    0.0000 N   0  0  0  0  0  3           0  0  0
    0.0000    0.0000    0.0000 C   0  0  0  0  0  4           0  0  0
    0.0000    0.0000    0.0000 N   0  0  0  0  0  3           0  0  0
    0.0000    0.0000    0.0000 C   0  0  0  0  0  4           0  0  0
    0.0000    0.0000    0.0000 C   0  0  0  0  0  4           0  0  0
    0.0000    0.0000    0.0000 C   0  0  0  0  0  4           0  0  0
    0.0000    0.0000    0.0000 C   0  0  0  0  0  4           0  0  0
    0.0000    0.0000    0.0000 C   0  0  0  0  0  4           0  0  0
    0.0000    0.0000    0.0000 C   0  0  0  0  0  4           0  0  0
    0.0000    0.0000    0.0000 S   0  0  0  0  0  2           0  0  0
    0.0000    0.0000    0.0000 C   0  0  0  0  0  4           0  0  0
    0.0000    0.0000    0.0000 C   0  0  0  0  0  4           0  0  0
    0.0000    0.0000    0.0000 C   0  0  0  0  0  4           0  0  0
    0.0000    0.0000    0.0000 C   0  0  0  0  0  4           0  0  0
    0.0000    0.0000    0.0000 C   0  0  0  0  0  4           0  0  0
    0.0000    0.0000    0.0000 C   0  0  0  0  0  4           0  0  0
  1  2  1  0     0  0
  2  3  1  0     0  0
  3  4  1  0     0  0
  4  5  1  0     0  0
  5  6  1  0     0  0
  6  7  1  0     0  0
  7  8  1  0     0  0
  8  9  1  0     0  0
  7 10  1  0     0  0
 10 11  1  0     0  0
  9 12  1  0     0  0
 11 12  1  0     0  0
 12 13  1  0     0  0
 13 14  2  0     0  0
 14 15  1  0     0  0
 15 16  2  0     0  0
 16 17  1  0     0  0
 17 18  2  0     0  0
 18 19  1  0     0  0
 15 20  1  0     0  0
 19 20  2  0     0  0
 20 21  1  0     0  0
 21 22  1  0     0  0
 22 23  2  0     0  0
 23 24  1  0     0  0
 24 25  2  0     0  0
 25 26  1  0     0  0
 13 27  1  0     0  0
 22 27  1  0     0  0
 26 27  2  0     0  0
M  END
> <Compound>
Quetiapine

> <canonical_smiles>
OCCOCCN(CC1)CCN1C2=Nc3ccccc3Sc4ccccc24

> <standard_type>
pIC50

> <standard_units>
uM

> <standard_relation>
=

> <actual_activity_value>
-0.7611758131557315

> <predicted_activity_value>
nan

> <Publication_ID>
nan

$$$$
46
  CDPL    08252113263D 1   1.00000     0.00000

 24 27  0     0  0            999 V2000
    0.0000    0.0000    0.0000 O   0  0  0  0  0  2           0  0  0
    0.0000    0.0000    0.0000 C   0  0  2  0  0  4           0  0  0
    0.0000    0.0000    0.0000 C   0  0  2  0  0  4           0  0  0
    0.0000    0.0000    0.0000 C   0  0  0  0  0  4           0  0  0
    0.0000    0.0000    0.0000 C   0  0  1  0  0  4           0  0  0
    0.0000    0.0000    0.0000 C   0  0  2  0  0  4           0  0  0
    0.0000    0.0000    0.0000 C   0  0  0  0  0  4           0  0  0
    0.0000    0.0000    0.0000 N   0  0  2  0  0  3           0  0  0
    0.0000    0.0000    0.0000 C   0  0  0  0  0  4           0  0  0
    0.0000    0.0000    0.0000 C   0  0  0  0  0  4           0  0  0
    0.0000    0.0000    0.0000 C   0  0  0  0  0  4           0  0  0
    0.0000    0.0000    0.0000 C   0  0  0  0  0  4           0  0  0
    0.0000    0.0000    0.0000 C   0  0  0  0  0  4           0  0  0
    0.0000    0.0000    0.0000 C   0  0  0  0  0  4           0  0  0
    0.0000    0.0000    0.0000 C   0  0  0  0  0  4           0  0  0
    0.0000    0.0000    0.0000 N   0  0  0  0  0  3           0  0  0
    0.0000    0.0000    0.0000 C   0  0  0  0  0  4           0  0  0
    0.0000    0.0000    0.0000 C   0  0  0  0  0  4           0  0  0
    0.0000    0.0000    0.0000 C   0  0  0  0  0  4           0  0  0
    0.0000    0.0000    0.0000 C   0  0  0  0  0  4           0  0  0
    0.0000    0.0000    0.0000 O   0  0  0  0  0  2           0  0  0
    0.0000    0.0000    0.0000 C   0  0  0  0  0  4           0  0  0
    0.0000    0.0000    0.0000 C   0  0  0  0  0  4           0  0  0
    0.0000    0.0000    0.0000 C   0  0  0  0  0  4           0  0  0
  1  2  1  0     0  0
  2  3  1  0     0  0
  3  4  1  0     0  0
  4  5  1  0     0  0
  5  6  1  0     0  0
  6  7  1  0     0  0
  3  8  1  0     0  0
  7  8  1  0     0  0
  8  9  1  0     0  0
  5 10  1  0     0  0
  9 10  1  0     0  0
  6 11  1  0     0  0
 11 12  2  0     0  0
  2 13  1  0     0  0
 13 14  2  0     0  0
 14 15  1  0     0  0
 15 16  2  0     0  0
 16 17  1  0     0  0
 17 18  2  0     0  0
 18 19  1  0     0  0
 19 20  2  0     0  0
 20 21  1  0     0  0
 21 22  1  0     0  0
 20 23  1  0     0  0
 13 24  1  0     0  0
 17 24  1  0     0  0
 23 24  2  0     0  0
M  END
> <Compound>
Quinidine

> <canonical_smiles>
O[C@H]([C@@H]1C[C@H]2[C@H](C[N@@]1CC2)C=C)C3=CC=NC4=CC=C(OC)C=C34

> <standard_type>
pIC50

> <standard_units>
uM

> <standard_relation>
=

> <actual_activity_value>
0.3979400086720376

> <predicted_activity_value>
nan

> <Publication_ID>
nan

$$$$
47
  CDPL    08252113263D 1   1.00000     0.00000

 30 34  0     0  0            999 V2000
    0.0000    0.0000    0.0000 O   0  0  0  0  0  2           0  0  0
    0.0000    0.0000    0.0000 C   0  0  0  0  0  4           0  0  0
    0.0000    0.0000    0.0000 C   0  0  0  0  0  4           0  0  0
    0.0000    0.0000    0.0000 C   0  0  0  0  0  4           0  0  0
    0.0000    0.0000    0.0000 C   0  0  0  0  0  4           0  0  0
    0.0000    0.0000    0.0000 N   0  0  0  0  0  3           0  0  0
    0.0000    0.0000    0.0000 C   0  0  0  0  0  4           0  0  0
    0.0000    0.0000    0.0000 C   0  0  0  0  0  4           0  0  0
    0.0000    0.0000    0.0000 C   0  0  0  0  0  4           0  0  0
    0.0000    0.0000    0.0000 C   0  0  0  0  0  4           0  0  0
    0.0000    0.0000    0.0000 C   0  0  0  0  0  4           0  0  0
    0.0000    0.0000    0.0000 C   0  0  0  0  0  4           0  0  0
    0.0000    0.0000    0.0000 N   0  0  0  0  0  3           0  0  0
    0.0000    0.0000    0.0000 O   0  0  0  0  0  2           0  0  0
    0.0000    0.0000    0.0000 C   0  0  0  0  0  4           0  0  0
    0.0000    0.0000    0.0000 C   0  0  0  0  0  4           0  0  0
    0.0000    0.0000    0.0000 C   0  0  0  0  0  4           0  0  0
    0.0000    0.0000    0.0000 C   0  0  0  0  0  4           0  0  0
    0.0000    0.0000    0.0000 C   0  0  0  0  0  4           0  0  0
    0.0000    0.0000    0.0000 F   0  0  0  0  0  1           0  0  0
    0.0000    0.0000    0.0000 C   0  0  0  0  0  4           0  0  0
    0.0000    0.0000    0.0000 C   0  0  0  0  0  4           0  0  0
    0.0000    0.0000    0.0000 N   0  0  0  0  0  3           0  0  0
    0.0000    0.0000    0.0000 C   0  0  0  0  0  4           0  0  0
    0.0000    0.0000    0.0000 N   0  0  0  0  0  3           0  0  0
    0.0000    0.0000    0.0000 C   0  0  0  0  0  4           0  0  0
    0.0000    0.0000    0.0000 C   0  0  0  0  0  4           0  0  0
    0.0000    0.0000    0.0000 C   0  0  0  0  0  4           0  0  0
    0.0000    0.0000    0.0000 C   0  0  0  0  0  4           0  0  0
    0.0000    0.0000    0.0000 C   0  0  0  0  0  4           0  0  0
  1  2  2  0     0  0
  2  3  1  0     0  0
  3  4  1  0     0  0
  4  5  1  0     0  0
  5  6  1  0     0  0
  6  7  1  0     0  0
  7  8  1  0     0  0
  8  9  1  0     0  0
  9 10  1  0     0  0
  6 11  1  0     0  0
 10 11  1  0     0  0
  9 12  1  0     0  0
 12 13  2  0     0  0
 13 14  1  0     0  0
 14 15  1  0     0  0
 12 16  1  0     0  0
 15 16  2  0     0  0
 16 17  1  0     0  0
 17 18  2  0     0  0
 18 19  1  0     0  0
 19 20  1  0     0  0
 15 21  1  0     0  0
 19 21  2  0     0  0
  3 22  2  0     0  0
 22 23  1  0     0  0
 23 24  2  0     0  0
  2 25  1  0     0  0
 24 25  1  0     0  0
 25 26  1  0     0  0
 26 27  1  0     0  0
 27 28  1  0     0  0
 24 29  1  0     0  0
 28 29  1  0     0  0
 22 30  1  0     0  0
M  END
> <Compound>
Risperidone

> <canonical_smiles>
O=C1C(CCN2CCC(CC2)C3=NOC4=C3C=CC(F)=C4)=C(N=C5N1CCCC5)C

> <standard_type>
pIC50

> <standard_units>
uM

> <standard_relation>
=

> <actual_activity_value>
0.7772835288524167

> <predicted_activity_value>
nan

> <Publication_ID>
nan

$$$$
48
  CDPL    08252113263D 1   1.00000     0.00000

 31 35  0     0  0            999 V2000
    0.0000    0.0000    0.0000 F   0  0  0  0  0  1           0  0  0
    0.0000    0.0000    0.0000 C   0  0  0  0  0  4           0  0  0
    0.0000    0.0000    0.0000 C   0  0  0  0  0  4           0  0  0
    0.0000    0.0000    0.0000 C   0  0  0  0  0  4           0  0  0
    0.0000    0.0000    0.0000 C   0  0  0  0  0  4           0  0  0
    0.0000    0.0000    0.0000 N   0  0  0  0  0  3           0  0  0
    0.0000    0.0000    0.0000 C   0  0  0  0  0  4           0  0  0
    0.0000    0.0000    0.0000 C   0  0  0  0  0  4           0  0  0
    0.0000    0.0000    0.0000 C   0  0  0  0  0  4           0  0  0
    0.0000    0.0000    0.0000 C   0  0  0  0  0  4           0  0  0
    0.0000    0.0000    0.0000 C   0  0  0  0  0  4           0  0  0
    0.0000    0.0000    0.0000 C   0  0  0  0  0  4           0  0  0
    0.0000    0.0000    0.0000 C   0  0  0  0  0  4           0  0  0
    0.0000    0.0000    0.0000 Cl  0  0  0  0  0  1           0  0  0
    0.0000    0.0000    0.0000 C   0  0  0  0  0  4           0  0  0
    0.0000    0.0000    0.0000 C   0  0  0  0  0  4           0  0  0
    0.0000    0.0000    0.0000 C   0  0  0  0  0  4           0  0  0
    0.0000    0.0000    0.0000 C   0  0  0  0  0  4           0  0  0
    0.0000    0.0000    0.0000 N   0  0  0  0  0  3           0  0  0
    0.0000    0.0000    0.0000 C   0  0  0  0  0  4           0  0  0
    0.0000    0.0000    0.0000 C   0  0  0  0  0  4           0  0  0
    0.0000    0.0000    0.0000 N   0  0  0  0  0  3           0  0  0
    0.0000    0.0000    0.0000 C   0  0  0  0  0  4           0  0  0
    0.0000    0.0000    0.0000 C   0  0  0  0  0  4           0  0  0
    0.0000    0.0000    0.0000 N   0  0  0  0  0  3           0  0  0
    0.0000    0.0000    0.0000 C   0  0  0  0  0  4           0  0  0
    0.0000    0.0000    0.0000 O   0  0  0  0  0  2           0  0  0
    0.0000    0.0000    0.0000 C   0  0  0  0  0  4           0  0  0
    0.0000    0.0000    0.0000 C   0  0  0  0  0  4           0  0  0
    0.0000    0.0000    0.0000 C   0  0  0  0  0  4           0  0  0
    0.0000    0.0000    0.0000 C   0  0  0  0  0  4           0  0  0
  1  2  1  0     0  0
  2  3  2  0     0  0
  3  4  1  0     0  0
  4  5  2  0     0  0
  5  6  1  0     0  0
  6  7  1  0     0  0
  7  8  2  0     0  0
  8  9  1  0     0  0
  6 10  1  0     0  0
  9 10  2  0     0  0
 10 11  1  0     0  0
 11 12  2  0     0  0
 12 13  1  0     0  0
 13 14  1  0     0  0
  9 15  1  0     0  0
 13 15  2  0     0  0
  8 16  1  0     0  0
 16 17  1  0     0  0
 17 18  1  0     0  0
 18 19  1  0     0  0
 19 20  1  0     0  0
 20 21  1  0     0  0
 21 22  1  0     0  0
 22 23  1  0     0  0
 23 24  1  0     0  0
 24 25  1  0     0  0
 22 26  1  0     0  0
 25 26  1  0     0  0
 26 27  2  0     0  0
 19 28  1  0     0  0
 16 29  1  0     0  0
 28 29  1  0     0  0
  5 30  1  0     0  0
  2 31  1  0     0  0
 30 31  2  0     0  0
M  END
> <Compound>
Sertindole

> <canonical_smiles>
FC1=CC=C(N2C=C(C3=C2C=CC(Cl)=C3)C4CCN(CCN5CCNC5=O)CC4)C=C1

> <standard_type>
pIC50

> <standard_units>
uM

> <standard_relation>
=

> <actual_activity_value>
1.853871964321762

> <predicted_activity_value>
nan

> <Publication_ID>
nan

$$$$
49
  CDPL    08252113263D 1   1.00000     0.00000

 28 31  0     0  0            999 V2000
    0.0000    0.0000    0.0000 O   0  0  0  0  0  2           0  0  0
    0.0000    0.0000    0.0000 C   0  0  0  0  0  4           0  0  0
    0.0000    0.0000    0.0000 C   0  0  0  0  0  4           0  0  0
    0.0000    0.0000    0.0000 C   0  0  0  0  0  4           0  0  0
    0.0000    0.0000    0.0000 N   0  0  0  0  0  3           0  0  0
    0.0000    0.0000    0.0000 C   0  0  0  0  0  4           0  0  0
    0.0000    0.0000    0.0000 C   0  0  0  0  0  4           0  0  0
    0.0000    0.0000    0.0000 C   0  0  0  0  0  4           0  0  0
    0.0000    0.0000    0.0000 C   0  0  0  0  0  4           0  0  0
    0.0000    0.0000    0.0000 C   0  0  0  0  0  4           0  0  0
    0.0000    0.0000    0.0000 F   0  0  0  0  0  1           0  0  0
    0.0000    0.0000    0.0000 C   0  0  0  0  0  4           0  0  0
    0.0000    0.0000    0.0000 N   0  0  0  0  0  3           0  0  0
    0.0000    0.0000    0.0000 C   0  0  0  0  0  4           0  0  0
    0.0000    0.0000    0.0000 C   0  0  2  0  0  4           0  0  0
    0.0000    0.0000    0.0000 C   0  0  0  0  0  4           0  0  0
    0.0000    0.0000    0.0000 N   0  0  0  0  0  3           0  0  0
    0.0000    0.0000    0.0000 C   0  0  2  0  0  4           0  0  0
    0.0000    0.0000    0.0000 C   0  0  0  0  0  4           0  0  0
    0.0000    0.0000    0.0000 C   0  0  0  0  0  4           0  0  0
    0.0000    0.0000    0.0000 C   0  0  0  0  0  4           0  0  0
    0.0000    0.0000    0.0000 F   0  0  0  0  0  1           0  0  0
    0.0000    0.0000    0.0000 C   0  0  0  0  0  4           0  0  0
    0.0000    0.0000    0.0000 N   0  0  0  0  0  3           0  0  0
    0.0000    0.0000    0.0000 C   0  0  0  0  0  4           0  0  0
    0.0000    0.0000    0.0000 C   0  0  0  0  0  4           0  0  0
    0.0000    0.0000    0.0000 O   0  0  0  0  0  2           0  0  0
    0.0000    0.0000    0.0000 O   0  0  0  0  0  2           0  0  0
  1  2  1  0     0  0
  2  3  1  0     0  0
  3  4  2  0     0  0
  4  5  1  0     0  0
  5  6  1  0     0  0
  6  7  1  0     0  0
  6  8  1  0     0  0
  7  8  1  0     0  0
  5  9  1  0     0  0
  9 10  2  0     0  0
 10 11  1  0     0  0
 10 12  1  0     0  0
 12 13  1  0     0  0
 13 14  1  0     0  0
 14 15  1  0     0  0
 15 16  1  0     0  0
 15 17  1  0     0  0
 17 18  1  0     0  0
 18 19  1  0     0  0
 13 20  1  0     0  0
 18 20  1  0     0  0
 12 21  2  0     0  0
 21 22  1  0     0  0
 21 23  1  0     0  0
 23 24  1  0     0  0
  9 25  1  0     0  0
 23 25  2  0     0  0
  3 26  1  0     0  0
 25 26  1  0     0  0
 26 27  2  0     0  0
  2 28  2  0     0  0
M  END
> <Compound>
Sparfloxacin

> <canonical_smiles>
OC(C1=CN(C2CC2)C3=C(F)C(N4C[C@H](C)N[C@H](C)C4)=C(F)C(N)=C3C1=O)=O

> <standard_type>
pIC50

> <standard_units>
uM

> <standard_relation>
=

> <actual_activity_value>
-1.255272505103306

> <predicted_activity_value>
nan

> <Publication_ID>
nan

$$$$
50
  CDPL    08252113263D 1   1.00000     0.00000

 32 36  0     0  0            999 V2000
    0.0000    0.0000    0.0000 O   0  0  0  0  0  2           0  0  0
    0.0000    0.0000    0.0000 C   0  0  0  0  0  4           0  0  0
    0.0000    0.0000    0.0000 C   0  0  0  0  0  4           0  0  0
    0.0000    0.0000    0.0000 C   0  0  0  0  0  4           0  0  0
    0.0000    0.0000    0.0000 C   0  0  1  0  0  4           0  0  0
    0.0000    0.0000    0.0000 C   0  0  0  0  0  4           0  0  0
    0.0000    0.0000    0.0000 C   0  0  0  0  0  4           0  0  0
    0.0000    0.0000    0.0000 C   0  0  0  0  0  4           0  0  0
    0.0000    0.0000    0.0000 C   0  0  1  0  0  4           0  0  0
    0.0000    0.0000    0.0000 S   0  0  0  0  0  2           0  0  0
    0.0000    0.0000    0.0000 C   0  0  0  0  0  4           0  0  0
    0.0000    0.0000    0.0000 C   0  0  0  0  0  4           0  0  0
    0.0000    0.0000    0.0000 O   0  0  0  0  0  2           0  0  0
    0.0000    0.0000    0.0000 C   0  0  2  0  0  4           0  0  0
    0.0000    0.0000    0.0000 H   0  0  0  0  0  1           0  0  0
    0.0000    0.0000    0.0000 C   0  0  2  0  0  4           0  0  0
    0.0000    0.0000    0.0000 H   0  0  0  0  0  1           0  0  0
    0.0000    0.0000    0.0000 C   0  0  0  0  0  4           0  0  0
    0.0000    0.0000    0.0000 C   0  0  0  0  0  4           0  0  0
    0.0000    0.0000    0.0000 C   0  0  1  0  0  4           0  0  0
    0.0000    0.0000    0.0000 C   0  0  0  0  0  4           0  0  0
    0.0000    0.0000    0.0000 C   0  0  1  0  0  4           0  0  0
    0.0000    0.0000    0.0000 H   0  0  0  0  0  1           0  0  0
    0.0000    0.0000    0.0000 C   0  0  0  0  0  4           0  0  0
    0.0000    0.0000    0.0000 C   0  0  0  0  0  4           0  0  0
    0.0000    0.0000    0.0000 C   0  0  2  0  0  4           0  0  0
    0.0000    0.0000    0.0000 O   0  0  0  0  0  2           0  0  0
    0.0000    0.0000    0.0000 C   0  0  0  0  0  4           0  0  0
    0.0000    0.0000    0.0000 C   0  0  0  0  0  4           0  0  0
    0.0000    0.0000    0.0000 C   0  0  0  0  0  4           0  0  0
    0.0000    0.0000    0.0000 O   0  0  0  0  0  2           0  0  0
    0.0000    0.0000    0.0000 C   0  0  0  0  0  4           0  0  0
  1  2  2  0     0  0
  2  3  1  0     0  0
  3  4  1  0     0  0
  4  5  1  0     0  0
  5  6  1  0     0  0
  5  7  1  0     0  0
  7  8  1  0     0  0
  8  9  1  0     0  0
  9 10  1  0     0  0
 10 11  1  0     0  0
 11 12  1  0     0  0
 11 13  2  0     0  0
  9 14  1  0     0  0
 14 15  1  0     0  0
  5 16  1  0     0  0
 14 16  1  0     0  0
 16 17  1  0     0  0
 16 18  1  0     0  0
 18 19  1  0     0  0
 19 20  1  0     0  0
 20 21  1  0     0  0
 14 22  1  0     0  0
 20 22  1  0     0  0
 22 23  1  0     0  0
 22 24  1  0     0  0
 24 25  1  0     0  0
 20 26  1  0     0  0
 25 26  1  0     0  0
 26 27  1  0     0  0
 27 28  1  0     0  0
 28 29  1  0     0  0
 26 30  1  0     0  0
 29 30  1  0     0  0
 28 31  2  0     0  0
  2 32  1  0     0  0
  7 32  2  0     0  0
M  END
> <Compound>
Spironolactone

> <canonical_smiles>
O=C1CC[C@@]2(C)C(C[C@@H](SC(C)=O)[C@]3([H])[C@]2([H])CC[C@@]4(C)[C@@]3([H])CC[C@]45OC(CC5)=O)=C1

> <standard_type>
pIC50

> <standard_units>
uM

> <standard_relation>
=

> <actual_activity_value>
-1.3617278360175928

> <predicted_activity_value>
nan

> <Publication_ID>
nan

$$$$
51
  CDPL    08252113263D 1   1.00000     0.00000

 35 38  0     0  0            999 V2000
    0.0000    0.0000    0.0000 C   0  0  0  0  0  4           0  0  0
    0.0000    0.0000    0.0000 C   0  0  0  0  0  4           0  0  0
    0.0000    0.0000    0.0000 C   0  0  0  0  0  4           0  0  0
    0.0000    0.0000    0.0000 C   0  0  0  0  0  4           0  0  0
    0.0000    0.0000    0.0000 C   0  0  0  0  0  4           0  0  0
    0.0000    0.0000    0.0000 C   0  0  0  0  0  4           0  0  0
    0.0000    0.0000    0.0000 C   0  0  0  0  0  4           0  0  0
    0.0000    0.0000    0.0000 C   0  0  0  0  0  4           0  0  0
    0.0000    0.0000    0.0000 C   0  0  0  0  0  4           0  0  0
    0.0000    0.0000    0.0000 C   0  0  0  0  0  4           0  0  0
    0.0000    0.0000    0.0000 C   0  0  0  0  0  4           0  0  0
    0.0000    0.0000    0.0000 N   0  0  0  0  0  3           0  0  0
    0.0000    0.0000    0.0000 C   0  0  0  0  0  4           0  0  0
    0.0000    0.0000    0.0000 C   0  0  0  0  0  4           0  0  0
    0.0000    0.0000    0.0000 C   0  0  0  0  0  4           0  0  0
    0.0000    0.0000    0.0000 C   0  0  0  0  0  4           0  0  0
    0.0000    0.0000    0.0000 C   0  0  0  0  0  4           0  0  0
    0.0000    0.0000    0.0000 C   0  0  0  0  0  4           0  0  0
    0.0000    0.0000    0.0000 C   0  0  0  0  0  4           0  0  0
    0.0000    0.0000    0.0000 C   0  0  0  0  0  4           0  0  0
    0.0000    0.0000    0.0000 C   0  0  0  0  0  4           0  0  0
    0.0000    0.0000    0.0000 C   0  0  0  0  0  4           0  0  0
    0.0000    0.0000    0.0000 O   0  0  0  0  0  2           0  0  0
    0.0000    0.0000    0.0000 C   0  0  0  0  0  4           0  0  0
    0.0000    0.0000    0.0000 C   0  0  0  0  0  4           0  0  0
    0.0000    0.0000    0.0000 C   0  0  0  0  0  4           0  0  0
    0.0000    0.0000    0.0000 C   0  0  0  0  0  4           0  0  0
    0.0000    0.0000    0.0000 C   0  0  0  0  0  4           0  0  0
    0.0000    0.0000    0.0000 C   0  0  0  0  0  4           0  0  0
    0.0000    0.0000    0.0000 C   0  0  0  0  0  4           0  0  0
    0.0000    0.0000    0.0000 C   0  0  0  0  0  4           0  0  0
    0.0000    0.0000    0.0000 O   0  0  0  0  0  2           0  0  0
    0.0000    0.0000    0.0000 C   0  0  0  0  0  4           0  0  0
    0.0000    0.0000    0.0000 C   0  0  0  0  0  4           0  0  0
    0.0000    0.0000    0.0000 C   0  0  0  0  0  4           0  0  0
  1  2  1  0     0  0
  2  3  1  0     0  0
  2  4  1  0     0  0
  4  5  2  0     0  0
  5  6  1  0     0  0
  6  7  2  0     0  0
  7  8  1  0     0  0
  8  9  1  0     0  0
  9 10  1  0     0  0
 10 11  1  0     0  0
 11 12  1  0     0  0
 12 13  1  0     0  0
 13 14  1  0     0  0
 14 15  1  0     0  0
 15 16  1  0     0  0
 16 17  1  0     0  0
 17 18  2  0     0  0
 18 19  1  0     0  0
 19 20  2  0     0  0
 20 21  1  0     0  0
 17 22  1  0     0  0
 21 22  2  0     0  0
 16 23  1  0     0  0
 16 24  1  0     0  0
 24 25  2  0     0  0
 25 26  1  0     0  0
 26 27  2  0     0  0
 27 28  1  0     0  0
 24 29  1  0     0  0
 28 29  2  0     0  0
 15 30  1  0     0  0
 12 31  1  0     0  0
 30 31  1  0     0  0
  8 32  1  0     0  0
  7 33  1  0     0  0
  4 34  1  0     0  0
 33 34  2  0     0  0
  2 35  1  0     0  0
M  END
> <Compound>
Terfenadine

> <canonical_smiles>
CC(C)(C1=CC=C(C(CCCN2CCC(C(C3=CC=CC=C3)(O)C4=CC=CC=C4)CC2)O)C=C1)C

> <standard_type>
pIC50

> <standard_units>
uM

> <standard_relation>
=

> <actual_activity_value>
1.2518119729937995

> <predicted_activity_value>
nan

> <Publication_ID>
nan

$$$$
52
  CDPL    08252113263D 1   1.00000     0.00000

 25 28  0     0  0            999 V2000
    0.0000    0.0000    0.0000 C   0  0  0  0  0  4           0  0  0
    0.0000    0.0000    0.0000 S   0  0  0  0  0  2           0  0  0
    0.0000    0.0000    0.0000 C   0  0  0  0  0  4           0  0  0
    0.0000    0.0000    0.0000 C   0  0  0  0  0  4           0  0  0
    0.0000    0.0000    0.0000 C   0  0  0  0  0  4           0  0  0
    0.0000    0.0000    0.0000 C   0  0  0  0  0  4           0  0  0
    0.0000    0.0000    0.0000 C   0  0  0  0  0  4           0  0  0
    0.0000    0.0000    0.0000 C   0  0  0  0  0  4           0  0  0
    0.0000    0.0000    0.0000 S   0  0  0  0  0  2           0  0  0
    0.0000    0.0000    0.0000 C   0  0  0  0  0  4           0  0  0
    0.0000    0.0000    0.0000 C   0  0  0  0  0  4           0  0  0
    0.0000    0.0000    0.0000 C   0  0  0  0  0  4           0  0  0
    0.0000    0.0000    0.0000 C   0  0  0  0  0  4           0  0  0
    0.0000    0.0000    0.0000 C   0  0  0  0  0  4           0  0  0
    0.0000    0.0000    0.0000 C   0  0  0  0  0  4           0  0  0
    0.0000    0.0000    0.0000 N   0  0  0  0  0  3           0  0  0
    0.0000    0.0000    0.0000 C   0  0  0  0  0  4           0  0  0
    0.0000    0.0000    0.0000 C   0  0  0  0  0  4           0  0  0
    0.0000    0.0000    0.0000 C   0  0  0  0  0  4           0  0  0
    0.0000    0.0000    0.0000 N   0  0  0  0  0  3           0  0  0
    0.0000    0.0000    0.0000 C   0  0  0  0  0  4           0  0  0
    0.0000    0.0000    0.0000 C   0  0  0  0  0  4           0  0  0
    0.0000    0.0000    0.0000 C   0  0  0  0  0  4           0  0  0
    0.0000    0.0000    0.0000 C   0  0  0  0  0  4           0  0  0
    0.0000    0.0000    0.0000 C   0  0  0  0  0  4           0  0  0
  1  2  1  0     0  0
  2  3  1  0     0  0
  3  4  2  0     0  0
  4  5  1  0     0  0
  5  6  2  0     0  0
  6  7  1  0     0  0
  3  8  1  0     0  0
  7  8  2  0     0  0
  6  9  1  0     0  0
  9 10  1  0     0  0
 10 11  2  0     0  0
 11 12  1  0     0  0
 12 13  2  0     0  0
 13 14  1  0     0  0
 10 15  1  0     0  0
 14 15  2  0     0  0
  5 16  1  0     0  0
 11 16  1  0     0  0
 16 17  1  0     0  0
 17 18  1  0     0  0
 18 19  1  0     0  0
 19 20  1  0     0  0
 20 21  1  0     0  0
 20 22  1  0     0  0
 22 23  1  0     0  0
 23 24  1  0     0  0
 19 25  1  0     0  0
 24 25  1  0     0  0
M  END
> <Compound>
Thioridazine

> <canonical_smiles>
CSC1=CC2=C(C=C1)SC3=C(C=CC=C3)N2CCC4N(C)CCCC4

> <standard_type>
pIC50

> <standard_units>
uM

> <standard_relation>
=

> <actual_activity_value>
1.4436974992327127

> <predicted_activity_value>
nan

> <Publication_ID>
nan

$$$$
53
  CDPL    08252113263D 1   1.00000     0.00000

 34 37  0     0  0            999 V2000
    0.0000    0.0000    0.0000 C   0  0  0  0  0  4           0  0  0
    0.0000    0.0000    0.0000 C   0  0  0  0  0  4           0  0  0
    0.0000    0.0000    0.0000 N   0  0  0  0  0  3           0  0  0
    0.0000    0.0000    0.0000 C   0  0  0  0  0  4           0  0  0
    0.0000    0.0000    0.0000 C   0  0  0  0  0  4           0  0  0
    0.0000    0.0000    0.0000 N   0  0  0  0  0  3           0  0  0
    0.0000    0.0000    0.0000 S   0  0  0  0  0  6           0  0  0
    0.0000    0.0000    0.0000 C   0  0  0  0  0  4           0  0  0
    0.0000    0.0000    0.0000 C   0  0  0  0  0  4           0  0  0
    0.0000    0.0000    0.0000 C   0  0  0  0  0  4           0  0  0
    0.0000    0.0000    0.0000 C   0  0  0  0  0  4           0  0  0
    0.0000    0.0000    0.0000 O   0  0  0  0  0  2           0  0  0
    0.0000    0.0000    0.0000 C   0  0  0  0  0  4           0  0  0
    0.0000    0.0000    0.0000 C   0  0  0  0  0  4           0  0  0
    0.0000    0.0000    0.0000 C   0  0  0  0  0  4           0  0  0
    0.0000    0.0000    0.0000 C   0  0  0  0  0  4           0  0  0
    0.0000    0.0000    0.0000 N   0  0  0  0  0  3           0  0  0
    0.0000    0.0000    0.0000 N   0  0  0  0  0  3           0  0  0
    0.0000    0.0000    0.0000 C   0  0  0  0  0  4           0  0  0
    0.0000    0.0000    0.0000 C   0  0  0  0  0  4           0  0  0
    0.0000    0.0000    0.0000 C   0  0  0  0  0  4           0  0  0
    0.0000    0.0000    0.0000 N   0  0  0  0  0  3           0  0  0
    0.0000    0.0000    0.0000 C   0  0  0  0  0  4           0  0  0
    0.0000    0.0000    0.0000 C   0  0  0  0  0  4           0  0  0
    0.0000    0.0000    0.0000 C   0  0  0  0  0  4           0  0  0
    0.0000    0.0000    0.0000 C   0  0  0  0  0  4           0  0  0
    0.0000    0.0000    0.0000 N   0  0  0  0  0  3           0  0  0
    0.0000    0.0000    0.0000 C   0  0  0  0  0  4           0  0  0
    0.0000    0.0000    0.0000 O   0  0  0  0  0  2           0  0  0
    0.0000    0.0000    0.0000 C   0  0  0  0  0  4           0  0  0
    0.0000    0.0000    0.0000 O   0  0  0  0  0  2           0  0  0
    0.0000    0.0000    0.0000 O   0  0  0  0  0  2           0  0  0
    0.0000    0.0000    0.0000 C   0  0  0  0  0  4           0  0  0
    0.0000    0.0000    0.0000 C   0  0  0  0  0  4           0  0  0
  1  2  1  0     0  0
  2  3  1  0     0  0
  3  4  1  0     0  0
  4  5  1  0     0  0
  5  6  1  0     0  0
  6  7  1  0     0  0
  7  8  1  0     0  0
  8  9  2  0     0  0
  9 10  1  0     0  0
 10 11  2  0     0  0
 11 12  1  0     0  0
 12 13  1  0     0  0
 13 14  1  0     0  0
 11 15  1  0     0  0
 15 16  1  0     0  0
 16 17  1  0     0  0
 17 18  1  0     0  0
 18 19  1  0     0  0
 19 20  2  0     0  0
 20 21  1  0     0  0
 20 22  1  0     0  0
 18 23  1  0     0  0
 22 23  2  0     0  0
 23 24  1  0     0  0
 24 25  1  0     0  0
 25 26  1  0     0  0
 16 27  2  0     0  0
 19 28  1  0     0  0
 27 28  1  0     0  0
 28 29  2  0     0  0
  8 30  1  0     0  0
 15 30  2  0     0  0
  7 31  2  0     0  0
  7 32  2  0     0  0
  6 33  1  0     0  0
  3 34  1  0     0  0
 33 34  1  0     0  0
M  END
> <Compound>
Vardenafil

> <canonical_smiles>
CCN1CCN(S(C2=CC=C(OCC)C(C(NN3C4=C(C)N=C3CCC)=NC4=O)=C2)(=O)=O)CC1

> <standard_type>
pIC50

> <standard_units>
uM

> <standard_relation>
=

> <actual_activity_value>
-1.1072099696478683

> <predicted_activity_value>
nan

> <Publication_ID>
nan

$$$$
54
  CDPL    08252113263D 1   1.00000     0.00000

 33 34  0     0  0            999 V2000
    0.0000    0.0000    0.0000 N   0  0  0  0  0  3           0  0  0
    0.0000    0.0000    0.0000 C   0  0  0  0  0  4           0  0  0
    0.0000    0.0000    0.0000 C   0  0  0  0  0  4           0  0  0
    0.0000    0.0000    0.0000 C   0  0  0  0  0  4           0  0  0
    0.0000    0.0000    0.0000 C   0  0  0  0  0  4           0  0  0
    0.0000    0.0000    0.0000 C   0  0  0  0  0  4           0  0  0
    0.0000    0.0000    0.0000 N   0  0  0  0  0  3           0  0  0
    0.0000    0.0000    0.0000 C   0  0  0  0  0  4           0  0  0
    0.0000    0.0000    0.0000 C   0  0  0  0  0  4           0  0  0
    0.0000    0.0000    0.0000 C   0  0  0  0  0  4           0  0  0
    0.0000    0.0000    0.0000 C   0  0  0  0  0  4           0  0  0
    0.0000    0.0000    0.0000 C   0  0  0  0  0  4           0  0  0
    0.0000    0.0000    0.0000 C   0  0  0  0  0  4           0  0  0
    0.0000    0.0000    0.0000 O   0  0  0  0  0  2           0  0  0
    0.0000    0.0000    0.0000 C   0  0  0  0  0  4           0  0  0
    0.0000    0.0000    0.0000 C   0  0  0  0  0  4           0  0  0
    0.0000    0.0000    0.0000 O   0  0  0  0  0  2           0  0  0
    0.0000    0.0000    0.0000 C   0  0  0  0  0  4           0  0  0
    0.0000    0.0000    0.0000 C   0  0  0  0  0  4           0  0  0
    0.0000    0.0000    0.0000 C   0  0  0  0  0  4           0  0  0
    0.0000    0.0000    0.0000 C   0  0  0  0  0  4           0  0  0
    0.0000    0.0000    0.0000 C   0  0  0  0  0  4           0  0  0
    0.0000    0.0000    0.0000 C   0  0  0  0  0  4           0  0  0
    0.0000    0.0000    0.0000 O   0  0  0  0  0  2           0  0  0
    0.0000    0.0000    0.0000 C   0  0  0  0  0  4           0  0  0
    0.0000    0.0000    0.0000 C   0  0  0  0  0  4           0  0  0
    0.0000    0.0000    0.0000 O   0  0  0  0  0  2           0  0  0
    0.0000    0.0000    0.0000 C   0  0  0  0  0  4           0  0  0
    0.0000    0.0000    0.0000 C   0  0  0  0  0  4           0  0  0
    0.0000    0.0000    0.0000 C   0  0  0  0  0  4           0  0  0
    0.0000    0.0000    0.0000 C   0  0  0  0  0  4           0  0  0
    0.0000    0.0000    0.0000 C   0  0  0  0  0  4           0  0  0
    0.0000    0.0000    0.0000 C   0  0  0  0  0  4           0  0  0
  1  2  3  0     0  0
  2  3  1  0     0  0
  3  4  1  0     0  0
  4  5  1  0     0  0
  5  6  1  0     0  0
  6  7  1  0     0  0
  7  8  1  0     0  0
  7  9  1  0     0  0
  9 10  1  0     0  0
 10 11  1  0     0  0
 11 12  2  0     0  0
 12 13  1  0     0  0
 13 14  1  0     0  0
 14 15  1  0     0  0
 13 16  2  0     0  0
 16 17  1  0     0  0
 17 18  1  0     0  0
 16 19  1  0     0  0
 11 20  1  0     0  0
 19 20  2  0     0  0
  3 21  1  0     0  0
 21 22  2  0     0  0
 22 23  1  0     0  0
 23 24  1  0     0  0
 24 25  1  0     0  0
 23 26  2  0     0  0
 26 27  1  0     0  0
 27 28  1  0     0  0
 26 29  1  0     0  0
 21 30  1  0     0  0
 29 30  2  0     0  0
  3 31  1  0     0  0
 31 32  1  0     0  0
 31 33  1  0     0  0
M  END
> <Compound>
Verapamil

> <canonical_smiles>
N#CC(CCCN(C)CCC1=CC(OC)=C(OC)C=C1)(C2=CC(OC)=C(OC)C=C2)C(C)C

> <standard_type>
pIC50

> <standard_units>
uM

> <standard_relation>
=

> <actual_activity_value>
0.8446639625349381

> <predicted_activity_value>
nan

> <Publication_ID>
nan

$$$$
55
  CDPL    08252113263D 1   1.00000     0.00000

 28 32  0     0  0            999 V2000
    0.0000    0.0000    0.0000 O   0  0  0  0  0  2           0  0  0
    0.0000    0.0000    0.0000 C   0  0  0  0  0  4           0  0  0
    0.0000    0.0000    0.0000 C   0  0  0  0  0  4           0  0  0
    0.0000    0.0000    0.0000 C   0  0  0  0  0  4           0  0  0
    0.0000    0.0000    0.0000 C   0  0  0  0  0  4           0  0  0
    0.0000    0.0000    0.0000 C   0  0  0  0  0  4           0  0  0
    0.0000    0.0000    0.0000 C   0  0  0  0  0  4           0  0  0
    0.0000    0.0000    0.0000 C   0  0  0  0  0  4           0  0  0
    0.0000    0.0000    0.0000 N   0  0  0  0  0  3           0  0  0
    0.0000    0.0000    0.0000 C   0  0  0  0  0  4           0  0  0
    0.0000    0.0000    0.0000 C   0  0  0  0  0  4           0  0  0
    0.0000    0.0000    0.0000 N   0  0  0  0  0  3           0  0  0
    0.0000    0.0000    0.0000 C   0  0  0  0  0  4           0  0  0
    0.0000    0.0000    0.0000 N   0  0  0  0  0  3           0  0  0
    0.0000    0.0000    0.0000 S   0  0  0  0  0  2           0  0  0
    0.0000    0.0000    0.0000 C   0  0  0  0  0  4           0  0  0
    0.0000    0.0000    0.0000 C   0  0  0  0  0  4           0  0  0
    0.0000    0.0000    0.0000 C   0  0  0  0  0  4           0  0  0
    0.0000    0.0000    0.0000 C   0  0  0  0  0  4           0  0  0
    0.0000    0.0000    0.0000 C   0  0  0  0  0  4           0  0  0
    0.0000    0.0000    0.0000 C   0  0  0  0  0  4           0  0  0
    0.0000    0.0000    0.0000 C   0  0  0  0  0  4           0  0  0
    0.0000    0.0000    0.0000 C   0  0  0  0  0  4           0  0  0
    0.0000    0.0000    0.0000 C   0  0  0  0  0  4           0  0  0
    0.0000    0.0000    0.0000 Cl  0  0  0  0  0  1           0  0  0
    0.0000    0.0000    0.0000 C   0  0  0  0  0  4           0  0  0
    0.0000    0.0000    0.0000 C   0  0  0  0  0  4           0  0  0
    0.0000    0.0000    0.0000 N   0  0  0  0  0  3           0  0  0
  1  2  2  0     0  0
  2  3  1  0     0  0
  3  4  1  0     0  0
  4  5  2  0     0  0
  5  6  1  0     0  0
  6  7  1  0     0  0
  7  8  1  0     0  0
  8  9  1  0     0  0
  9 10  1  0     0  0
 10 11  1  0     0  0
 11 12  1  0     0  0
 12 13  1  0     0  0
 13 14  2  0     0  0
 14 15  1  0     0  0
 13 16  1  0     0  0
 15 17  1  0     0  0
 16 17  1  0     0  0
 17 18  2  0     0  0
 18 19  1  0     0  0
 19 20  2  0     0  0
 16 21  2  0     0  0
 20 21  1  0     0  0
 12 22  1  0     0  0
  9 23  1  0     0  0
 22 23  1  0     0  0
  6 24  2  0     0  0
 24 25  1  0     0  0
 24 26  1  0     0  0
  4 27  1  0     0  0
 26 27  2  0     0  0
  2 28  1  0     0  0
 27 28  1  0     0  0
M  END
> <Compound>
Ziprasidone

> <canonical_smiles>
O=C1Cc2cc(CCN3CCN(c(ns4)c5c4cccc5)CC3)c(Cl)cc2N1

> <standard_type>
pIC50

> <standard_units>
uM

> <standard_relation>
=

> <actual_activity_value>
0.7721132953863264

> <predicted_activity_value>
nan

> <Publication_ID>
nan

$$$$
