6
XXILIB    08252103503D 0   0.00000     0.00000

 19 20  0     1  0            999 V2000
   -2.3318   -4.1200   -3.7558 Cl  0  0  0  0  0  1           0  0  0
   -0.0561   -0.8118    2.2934 N   0  0  0  0  0  3           0  0  0
    1.8795    2.5396    0.1707 N   0  0  1  0  0  3           0  0  0
   -1.6748   -2.9489   -2.6778 C   0  0  0  0  0  4           0  0  0
   -0.6287    0.0000    1.3686 C   0  0  0  0  0  4           0  0  0
   -0.5996   -0.8263    3.5318 C   0  0  0  0  0  4           0  0  0
   -0.6024   -1.0405   -0.9210 C   0  0  0  0  0  4           0  0  0
   -1.4013   -3.2998   -1.3575 C   0  0  0  0  0  4           0  0  0
   -1.4154   -1.6578   -3.1325 C   0  0  0  0  0  4           0  0  0
   -1.7338    0.8000    1.6639 C   0  0  0  0  0  4           0  0  0
   -1.6929   -0.0670    3.9073 C   0  0  0  0  0  4           0  0  0
   -0.8654   -2.3496   -0.4853 C   0  0  0  0  0  4           0  0  0
   -0.8793   -0.7107   -2.2573 C   0  0  0  0  0  4           0  0  0
   -2.2644    0.7600    2.9502 C   0  0  0  0  0  4           0  0  0
    2.1811    1.2066    0.6966 C   0  0  0  0  0  4           0  0  0
    2.5774    3.5601    0.9554 C   0  0  0  0  0  4           0  0  0
    2.2491    2.6601   -1.2418 C   0  0  0  0  0  4           0  0  0
   -0.0000    0.0000    0.0000 C   0  0  2  0  0  4           0  0  0
    1.5368   -0.0000   -0.0000 C   0  0  0  0  0  4           0  0  0
  1  4  1  0     0  0
  2  5  2  0     0  0
  2  6  1  0     0  0
  3 15  1  0     0  0
  3 16  1  0     0  0
  3 17  1  0     0  0
  4  8  2  0     0  0
  4  9  1  0     0  0
  5 10  1  0     0  0
  5 18  1  0     0  0
  6 11  2  0     0  0
  7 12  2  0     0  0
  7 13  1  0     0  0
  7 18  1  0     0  0
  8 12  1  0     0  0
  9 13  2  0     0  0
 10 14  2  0     0  0
 11 14  1  0     0  0
 15 19  1  0     0  0
 18 19  1  0     0  0
M  END
> <standard_type>
pIC50

> <# Confs.>
25

> <canonical_smiles>
CN(C)CCC(C1=NC=CC=C1)C2=CC=C(Cl)C=C2

> <standard_relation>
=

> <Publication_ID>
nan

> <predicted_activity_value>
nan

> <actual_activity_value>
-0.2041199826559248

> <Compound>
Chlorpheniramine

> <standard_units>
uM

> hash
10348786106389164537

$$$$
6
XXILIB    08252103503D 0   0.00000     0.00000

 19 20  0     1  0            999 V2000
   -2.3318   -4.1200   -3.7558 Cl  0  0  0  0  0  1           0  0  0
   -0.0561   -0.8118    2.2934 N   0  0  0  0  0  3           0  0  0
    3.6435    1.2722    0.7345 N   0  0  1  0  0  3           0  0  0
   -1.6748   -2.9489   -2.6778 C   0  0  0  0  0  4           0  0  0
   -0.6287    0.0000    1.3686 C   0  0  0  0  0  4           0  0  0
   -0.5996   -0.8263    3.5318 C   0  0  0  0  0  4           0  0  0
   -0.6024   -1.0405   -0.9210 C   0  0  0  0  0  4           0  0  0
   -1.4013   -3.2998   -1.3575 C   0  0  0  0  0  4           0  0  0
   -1.4154   -1.6578   -3.1325 C   0  0  0  0  0  4           0  0  0
   -1.7338    0.8000    1.6639 C   0  0  0  0  0  4           0  0  0
   -1.6929   -0.0670    3.9073 C   0  0  0  0  0  4           0  0  0
   -0.8654   -2.3496   -0.4853 C   0  0  0  0  0  4           0  0  0
   -0.8793   -0.7107   -2.2573 C   0  0  0  0  0  4           0  0  0
   -2.2644    0.7600    2.9502 C   0  0  0  0  0  4           0  0  0
    2.1811    1.2066    0.6966 C   0  0  0  0  0  4           0  0  0
    4.0751    2.4841    1.4342 C   0  0  0  0  0  4           0  0  0
    4.2213    0.0921    1.3822 C   0  0  0  0  0  4           0  0  0
   -0.0000    0.0000    0.0000 C   0  0  2  0  0  4           0  0  0
    1.5368    0.0000    0.0000 C   0  0  0  0  0  4           0  0  0
  1  4  1  0     0  0
  2  5  2  0     0  0
  2  6  1  0     0  0
  3 15  1  0     0  0
  3 16  1  0     0  0
  3 17  1  0     0  0
  4  8  2  0     0  0
  4  9  1  0     0  0
  5 10  1  0     0  0
  5 18  1  0     0  0
  6 11  2  0     0  0
  7 12  2  0     0  0
  7 13  1  0     0  0
  7 18  1  0     0  0
  8 12  1  0     0  0
  9 13  2  0     0  0
 10 14  2  0     0  0
 11 14  1  0     0  0
 15 19  1  0     0  0
 18 19  1  0     0  0
M  END
> <standard_type>
pIC50

> <# Confs.>
25

> <canonical_smiles>
CN(C)CCC(C1=NC=CC=C1)C2=CC=C(Cl)C=C2

> <standard_relation>
=

> <Publication_ID>
nan

> <predicted_activity_value>
nan

> <actual_activity_value>
-0.2041199826559248

> <Compound>
Chlorpheniramine

> <standard_units>
uM

> hash
10348786106389164537

$$$$
6
XXILIB    08252103503D 0   0.00000     0.00000

 19 20  0     1  0            999 V2000
   -2.3738   -4.2322   -3.6015 Cl  0  0  0  0  0  1           0  0  0
   -0.0561   -0.8118    2.2934 N   0  0  0  0  0  3           0  0  0
    1.8795    2.5396    0.1707 N   0  0  1  0  0  3           0  0  0
   -1.6999   -3.0184   -2.5829 C   0  0  0  0  0  4           0  0  0
   -0.6287    0.0000    1.3686 C   0  0  0  0  0  4           0  0  0
   -0.5996   -0.8263    3.5318 C   0  0  0  0  0  4           0  0  0
   -0.6024   -1.0405   -0.9210 C   0  0  0  0  0  4           0  0  0
   -2.4070   -1.8412   -2.3477 C   0  0  0  0  0  4           0  0  0
   -0.4534   -3.2217   -1.9949 C   0  0  0  0  0  4           0  0  0
   -1.7338    0.8000    1.6639 C   0  0  0  0  0  4           0  0  0
   -1.6929   -0.0670    3.9073 C   0  0  0  0  0  4           0  0  0
   -1.8605   -0.8590   -1.5185 C   0  0  0  0  0  4           0  0  0
    0.0895   -2.2374   -1.1662 C   0  0  0  0  0  4           0  0  0
   -2.2644    0.7600    2.9502 C   0  0  0  0  0  4           0  0  0
    2.1811    1.2066    0.6966 C   0  0  0  0  0  4           0  0  0
    2.5774    3.5601    0.9554 C   0  0  0  0  0  4           0  0  0
    2.2491    2.6601   -1.2418 C   0  0  0  0  0  4           0  0  0
   -0.0000    0.0000    0.0000 C   0  0  2  0  0  4           0  0  0
    1.5368   -0.0000   -0.0000 C   0  0  0  0  0  4           0  0  0
  1  4  1  0     0  0
  2  5  2  0     0  0
  2  6  1  0     0  0
  3 15  1  0     0  0
  3 16  1  0     0  0
  3 17  1  0     0  0
  4  8  2  0     0  0
  4  9  1  0     0  0
  5 10  1  0     0  0
  5 18  1  0     0  0
  6 11  2  0     0  0
  7 12  2  0     0  0
  7 13  1  0     0  0
  7 18  1  0     0  0
  8 12  1  0     0  0
  9 13  2  0     0  0
 10 14  2  0     0  0
 11 14  1  0     0  0
 15 19  1  0     0  0
 18 19  1  0     0  0
M  END
> <standard_type>
pIC50

> <# Confs.>
25

> <canonical_smiles>
CN(C)CCC(C1=NC=CC=C1)C2=CC=C(Cl)C=C2

> <standard_relation>
=

> <Publication_ID>
nan

> <predicted_activity_value>
nan

> <actual_activity_value>
-0.2041199826559248

> <Compound>
Chlorpheniramine

> <standard_units>
uM

> hash
10348786106389164537

$$$$
6
XXILIB    08252103503D 0   0.00000     0.00000

 19 20  0     1  0            999 V2000
   -2.3738   -4.2322   -3.6015 Cl  0  0  0  0  0  1           0  0  0
   -1.2243    1.1563    1.7568 N   0  0  0  0  0  3           0  0  0
    3.6435    1.2722    0.7345 N   0  0  1  0  0  3           0  0  0
   -1.6999   -3.0184   -2.5829 C   0  0  0  0  0  4           0  0  0
   -0.6287   -0.0000    1.3686 C   0  0  0  0  0  4           0  0  0
   -1.8003    1.1804    2.9801 C   0  0  0  0  0  4           0  0  0
   -0.6024   -1.0405   -0.9210 C   0  0  0  0  0  4           0  0  0
   -2.4070   -1.8412   -2.3477 C   0  0  0  0  0  4           0  0  0
   -0.4534   -3.2217   -1.9949 C   0  0  0  0  0  4           0  0  0
   -0.6036   -1.1333    2.1831 C   0  0  0  0  0  4           0  0  0
   -1.8199    0.1044    3.8490 C   0  0  0  0  0  4           0  0  0
   -1.8605   -0.8590   -1.5185 C   0  0  0  0  0  4           0  0  0
    0.0895   -2.2374   -1.1662 C   0  0  0  0  0  4           0  0  0
   -1.2090   -1.0712    3.4351 C   0  0  0  0  0  4           0  0  0
    2.1811    1.2066    0.6966 C   0  0  0  0  0  4           0  0  0
    4.0751    2.4841    1.4342 C   0  0  0  0  0  4           0  0  0
    4.2213    0.0921    1.3822 C   0  0  0  0  0  4           0  0  0
   -0.0000    0.0000    0.0000 C   0  0  2  0  0  4           0  0  0
    1.5368    0.0000    0.0000 C   0  0  0  0  0  4           0  0  0
  1  4  1  0     0  0
  2  5  2  0     0  0
  2  6  1  0     0  0
  3 15  1  0     0  0
  3 16  1  0     0  0
  3 17  1  0     0  0
  4  8  2  0     0  0
  4  9  1  0     0  0
  5 10  1  0     0  0
  5 18  1  0     0  0
  6 11  2  0     0  0
  7 12  2  0     0  0
  7 13  1  0     0  0
  7 18  1  0     0  0
  8 12  1  0     0  0
  9 13  2  0     0  0
 10 14  2  0     0  0
 11 14  1  0     0  0
 15 19  1  0     0  0
 18 19  1  0     0  0
M  END
> <standard_type>
pIC50

> <# Confs.>
25

> <canonical_smiles>
CN(C)CCC(C1=NC=CC=C1)C2=CC=C(Cl)C=C2

> <standard_relation>
=

> <Publication_ID>
nan

> <predicted_activity_value>
nan

> <actual_activity_value>
-0.2041199826559248

> <Compound>
Chlorpheniramine

> <standard_units>
uM

> hash
10348786106389164537

$$$$
6
XXILIB    08252103503D 0   0.00000     0.00000

 19 20  0     1  0            999 V2000
   -2.3318   -4.1200   -3.7558 Cl  0  0  0  0  0  1           0  0  0
   -0.0561   -0.8118    2.2934 N   0  0  0  0  0  3           0  0  0
    1.8795    1.1220   -2.2847 N   0  0  1  0  0  3           0  0  0
   -1.6748   -2.9489   -2.6778 C   0  0  0  0  0  4           0  0  0
   -0.6287    0.0000    1.3686 C   0  0  0  0  0  4           0  0  0
   -0.5996   -0.8263    3.5318 C   0  0  0  0  0  4           0  0  0
   -0.6024   -1.0405   -0.9210 C   0  0  0  0  0  4           0  0  0
   -1.4013   -3.2998   -1.3575 C   0  0  0  0  0  4           0  0  0
   -1.4154   -1.6578   -3.1325 C   0  0  0  0  0  4           0  0  0
   -1.7338    0.8000    1.6639 C   0  0  0  0  0  4           0  0  0
   -1.6929   -0.0670    3.9073 C   0  0  0  0  0  4           0  0  0
   -0.8654   -2.3496   -0.4853 C   0  0  0  0  0  4           0  0  0
   -0.8793   -0.7107   -2.2573 C   0  0  0  0  0  4           0  0  0
   -2.2644    0.7600    2.9502 C   0  0  0  0  0  4           0  0  0
    2.1811    0.0000   -1.3933 C   0  0  0  0  0  4           0  0  0
    2.3113    2.3807   -1.6733 C   0  0  0  0  0  4           0  0  0
    2.5184    0.9603   -3.5930 C   0  0  0  0  0  4           0  0  0
   -0.0000    0.0000    0.0000 C   0  0  2  0  0  4           0  0  0
    1.5368    0.0000    0.0000 C   0  0  0  0  0  4           0  0  0
  1  4  1  0     0  0
  2  5  2  0     0  0
  2  6  1  0     0  0
  3 15  1  0     0  0
  3 16  1  0     0  0
  3 17  1  0     0  0
  4  8  2  0     0  0
  4  9  1  0     0  0
  5 10  1  0     0  0
  5 18  1  0     0  0
  6 11  2  0     0  0
  7 12  2  0     0  0
  7 13  1  0     0  0
  7 18  1  0     0  0
  8 12  1  0     0  0
  9 13  2  0     0  0
 10 14  2  0     0  0
 11 14  1  0     0  0
 15 19  1  0     0  0
 18 19  1  0     0  0
M  END
> <standard_type>
pIC50

> <# Confs.>
25

> <canonical_smiles>
CN(C)CCC(C1=NC=CC=C1)C2=CC=C(Cl)C=C2

> <standard_relation>
=

> <Publication_ID>
nan

> <predicted_activity_value>
nan

> <actual_activity_value>
-0.2041199826559248

> <Compound>
Chlorpheniramine

> <standard_units>
uM

> hash
10348786106389164537

$$$$
6
XXILIB    08252103503D 0   0.00000     0.00000

 19 20  0     1  0            999 V2000
   -2.3738   -4.2322   -3.6015 Cl  0  0  0  0  0  1           0  0  0
   -0.0561   -0.8118    2.2934 N   0  0  0  0  0  3           0  0  0
    3.6435    1.2722    0.7345 N   0  0  1  0  0  3           0  0  0
   -1.6999   -3.0184   -2.5829 C   0  0  0  0  0  4           0  0  0
   -0.6287    0.0000    1.3686 C   0  0  0  0  0  4           0  0  0
   -0.5996   -0.8263    3.5318 C   0  0  0  0  0  4           0  0  0
   -0.6024   -1.0405   -0.9210 C   0  0  0  0  0  4           0  0  0
   -2.4070   -1.8412   -2.3477 C   0  0  0  0  0  4           0  0  0
   -0.4534   -3.2217   -1.9949 C   0  0  0  0  0  4           0  0  0
   -1.7338    0.8000    1.6639 C   0  0  0  0  0  4           0  0  0
   -1.6929   -0.0670    3.9073 C   0  0  0  0  0  4           0  0  0
   -1.8605   -0.8590   -1.5185 C   0  0  0  0  0  4           0  0  0
    0.0895   -2.2374   -1.1662 C   0  0  0  0  0  4           0  0  0
   -2.2644    0.7600    2.9502 C   0  0  0  0  0  4           0  0  0
    2.1811    1.2066    0.6966 C   0  0  0  0  0  4           0  0  0
    4.0751    2.4841    1.4342 C   0  0  0  0  0  4           0  0  0
    4.2213    0.0921    1.3822 C   0  0  0  0  0  4           0  0  0
   -0.0000    0.0000    0.0000 C   0  0  2  0  0  4           0  0  0
    1.5368    0.0000    0.0000 C   0  0  0  0  0  4           0  0  0
  1  4  1  0     0  0
  2  5  2  0     0  0
  2  6  1  0     0  0
  3 15  1  0     0  0
  3 16  1  0     0  0
  3 17  1  0     0  0
  4  8  2  0     0  0
  4  9  1  0     0  0
  5 10  1  0     0  0
  5 18  1  0     0  0
  6 11  2  0     0  0
  7 12  2  0     0  0
  7 13  1  0     0  0
  7 18  1  0     0  0
  8 12  1  0     0  0
  9 13  2  0     0  0
 10 14  2  0     0  0
 11 14  1  0     0  0
 15 19  1  0     0  0
 18 19  1  0     0  0
M  END
> <standard_type>
pIC50

> <# Confs.>
25

> <canonical_smiles>
CN(C)CCC(C1=NC=CC=C1)C2=CC=C(Cl)C=C2

> <standard_relation>
=

> <Publication_ID>
nan

> <predicted_activity_value>
nan

> <actual_activity_value>
-0.2041199826559248

> <Compound>
Chlorpheniramine

> <standard_units>
uM

> hash
10348786106389164537

$$$$
6
XXILIB    08252103503D 0   0.00000     0.00000

 19 20  0     1  0            999 V2000
   -2.3738   -4.2322   -3.6015 Cl  0  0  0  0  0  1           0  0  0
   -1.7035    0.8118    1.5366 N   0  0  0  0  0  3           0  0  0
    3.6435    1.2722    0.7345 N   0  0  1  0  0  3           0  0  0
   -1.6999   -3.0184   -2.5829 C   0  0  0  0  0  4           0  0  0
   -0.6287    0.0000    1.3686 C   0  0  0  0  0  4           0  0  0
   -2.2889    0.8263    2.7557 C   0  0  0  0  0  4           0  0  0
   -0.6024   -1.0405   -0.9210 C   0  0  0  0  0  4           0  0  0
   -2.4070   -1.8412   -2.3477 C   0  0  0  0  0  4           0  0  0
   -0.4534   -3.2217   -1.9949 C   0  0  0  0  0  4           0  0  0
   -0.1329   -0.8000    2.3994 C   0  0  0  0  0  4           0  0  0
   -1.8617    0.0670    3.8298 C   0  0  0  0  0  4           0  0  0
   -1.8605   -0.8590   -1.5185 C   0  0  0  0  0  4           0  0  0
    0.0895   -2.2374   -1.1662 C   0  0  0  0  0  4           0  0  0
   -0.7632   -0.7600    3.6399 C   0  0  0  0  0  4           0  0  0
    2.1811    1.2066    0.6966 C   0  0  0  0  0  4           0  0  0
    4.1818    1.2956   -0.6271 C   0  0  0  0  0  4           0  0  0
    4.1133    2.4459    1.4748 C   0  0  0  0  0  4           0  0  0
   -0.0000    0.0000    0.0000 C   0  0  2  0  0  4           0  0  0
    1.5368    0.0000   -0.0000 C   0  0  0  0  0  4           0  0  0
  1  4  1  0     0  0
  2  5  2  0     0  0
  2  6  1  0     0  0
  3 15  1  0     0  0
  3 16  1  0     0  0
  3 17  1  0     0  0
  4  8  2  0     0  0
  4  9  1  0     0  0
  5 10  1  0     0  0
  5 18  1  0     0  0
  6 11  2  0     0  0
  7 12  2  0     0  0
  7 13  1  0     0  0
  7 18  1  0     0  0
  8 12  1  0     0  0
  9 13  2  0     0  0
 10 14  2  0     0  0
 11 14  1  0     0  0
 15 19  1  0     0  0
 18 19  1  0     0  0
M  END
> <standard_type>
pIC50

> <# Confs.>
25

> <canonical_smiles>
CN(C)CCC(C1=NC=CC=C1)C2=CC=C(Cl)C=C2

> <standard_relation>
=

> <Publication_ID>
nan

> <predicted_activity_value>
nan

> <actual_activity_value>
-0.2041199826559248

> <Compound>
Chlorpheniramine

> <standard_units>
uM

> hash
10348786106389164537

$$$$
6
XXILIB    08252103503D 0   0.00000     0.00000

 19 20  0     1  0            999 V2000
   -2.3318   -4.1200   -3.7558 Cl  0  0  0  0  0  1           0  0  0
   -0.0561   -0.8118    2.2934 N   0  0  0  0  0  3           0  0  0
    3.6435    0.0000   -1.4690 N   0  0  1  0  0  3           0  0  0
   -1.6748   -2.9489   -2.6778 C   0  0  0  0  0  4           0  0  0
   -0.6287    0.0000    1.3686 C   0  0  0  0  0  4           0  0  0
   -0.5996   -0.8263    3.5318 C   0  0  0  0  0  4           0  0  0
   -0.6024   -1.0405   -0.9210 C   0  0  0  0  0  4           0  0  0
   -1.4013   -3.2998   -1.3575 C   0  0  0  0  0  4           0  0  0
   -1.4154   -1.6578   -3.1325 C   0  0  0  0  0  4           0  0  0
   -1.7338    0.8000    1.6639 C   0  0  0  0  0  4           0  0  0
   -1.6929   -0.0670    3.9073 C   0  0  0  0  0  4           0  0  0
   -0.8654   -2.3496   -0.4853 C   0  0  0  0  0  4           0  0  0
   -0.8793   -0.7107   -2.2573 C   0  0  0  0  0  4           0  0  0
   -2.2644    0.7600    2.9502 C   0  0  0  0  0  4           0  0  0
    2.1811    0.0000   -1.3933 C   0  0  0  0  0  4           0  0  0
    4.1818   -1.1909   -0.8084 C   0  0  0  0  0  4           0  0  0
    4.1133    0.0542   -2.8556 C   0  0  0  0  0  4           0  0  0
   -0.0000    0.0000    0.0000 C   0  0  2  0  0  4           0  0  0
    1.5368   -0.0000   -0.0000 C   0  0  0  0  0  4           0  0  0
  1  4  1  0     0  0
  2  5  2  0     0  0
  2  6  1  0     0  0
  3 15  1  0     0  0
  3 16  1  0     0  0
  3 17  1  0     0  0
  4  8  2  0     0  0
  4  9  1  0     0  0
  5 10  1  0     0  0
  5 18  1  0     0  0
  6 11  2  0     0  0
  7 12  2  0     0  0
  7 13  1  0     0  0
  7 18  1  0     0  0
  8 12  1  0     0  0
  9 13  2  0     0  0
 10 14  2  0     0  0
 11 14  1  0     0  0
 15 19  1  0     0  0
 18 19  1  0     0  0
M  END
> <standard_type>
pIC50

> <# Confs.>
25

> <canonical_smiles>
CN(C)CCC(C1=NC=CC=C1)C2=CC=C(Cl)C=C2

> <standard_relation>
=

> <Publication_ID>
nan

> <predicted_activity_value>
nan

> <actual_activity_value>
-0.2041199826559248

> <Compound>
Chlorpheniramine

> <standard_units>
uM

> hash
10348786106389164537

$$$$
6
XXILIB    08252103503D 0   0.00000     0.00000

 19 20  0     1  0            999 V2000
   -2.3318   -4.1200   -3.7558 Cl  0  0  0  0  0  1           0  0  0
    0.2024   -0.2498    2.4122 N   0  0  0  0  0  3           0  0  0
    3.6435    0.0000   -1.4690 N   0  0  1  0  0  3           0  0  0
   -1.6748   -2.9489   -2.6778 C   0  0  0  0  0  4           0  0  0
   -0.6287   -0.0000    1.3686 C   0  0  0  0  0  4           0  0  0
   -0.3373   -0.2508    3.6522 C   0  0  0  0  0  4           0  0  0
   -0.6024   -1.0405   -0.9210 C   0  0  0  0  0  4           0  0  0
   -1.4013   -3.2998   -1.3575 C   0  0  0  0  0  4           0  0  0
   -1.4154   -1.6578   -3.1325 C   0  0  0  0  0  4           0  0  0
   -1.9900    0.2524    1.5462 C   0  0  0  0  0  4           0  0  0
   -1.6738   -0.0116    3.9161 C   0  0  0  0  0  4           0  0  0
   -0.8654   -2.3496   -0.4853 C   0  0  0  0  0  4           0  0  0
   -0.8793   -0.7107   -2.2573 C   0  0  0  0  0  4           0  0  0
   -2.5092    0.2452    2.8378 C   0  0  0  0  0  4           0  0  0
    2.1811    0.0000   -1.3933 C   0  0  0  0  0  4           0  0  0
    4.0751    0.0000   -2.8683 C   0  0  0  0  0  4           0  0  0
    4.2213    1.1510   -0.7708 C   0  0  0  0  0  4           0  0  0
   -0.0000    0.0000    0.0000 C   0  0  2  0  0  4           0  0  0
    1.5368    0.0000    0.0000 C   0  0  0  0  0  4           0  0  0
  1  4  1  0     0  0
  2  5  2  0     0  0
  2  6  1  0     0  0
  3 15  1  0     0  0
  3 16  1  0     0  0
  3 17  1  0     0  0
  4  8  2  0     0  0
  4  9  1  0     0  0
  5 10  1  0     0  0
  5 18  1  0     0  0
  6 11  2  0     0  0
  7 12  2  0     0  0
  7 13  1  0     0  0
  7 18  1  0     0  0
  8 12  1  0     0  0
  9 13  2  0     0  0
 10 14  2  0     0  0
 11 14  1  0     0  0
 15 19  1  0     0  0
 18 19  1  0     0  0
M  END
> <standard_type>
pIC50

> <# Confs.>
25

> <canonical_smiles>
CN(C)CCC(C1=NC=CC=C1)C2=CC=C(Cl)C=C2

> <standard_relation>
=

> <Publication_ID>
nan

> <predicted_activity_value>
nan

> <actual_activity_value>
-0.2041199826559248

> <Compound>
Chlorpheniramine

> <standard_units>
uM

> hash
10348786106389164537

$$$$
6
XXILIB    08252103503D 0   0.00000     0.00000

 19 20  0     1  0            999 V2000
   -2.3738   -4.2322   -3.6015 Cl  0  0  0  0  0  1           0  0  0
   -1.2243    1.1563    1.7568 N   0  0  0  0  0  3           0  0  0
    1.8795    2.5396    0.1707 N   0  0  1  0  0  3           0  0  0
   -1.6999   -3.0184   -2.5829 C   0  0  0  0  0  4           0  0  0
   -0.6287   -0.0000    1.3686 C   0  0  0  0  0  4           0  0  0
   -1.8003    1.1804    2.9801 C   0  0  0  0  0  4           0  0  0
   -0.6024   -1.0405   -0.9210 C   0  0  0  0  0  4           0  0  0
   -2.4070   -1.8412   -2.3477 C   0  0  0  0  0  4           0  0  0
   -0.4534   -3.2217   -1.9949 C   0  0  0  0  0  4           0  0  0
   -0.6036   -1.1333    2.1831 C   0  0  0  0  0  4           0  0  0
   -1.8199    0.1044    3.8490 C   0  0  0  0  0  4           0  0  0
   -1.8605   -0.8590   -1.5185 C   0  0  0  0  0  4           0  0  0
    0.0895   -2.2374   -1.1662 C   0  0  0  0  0  4           0  0  0
   -1.2090   -1.0712    3.4351 C   0  0  0  0  0  4           0  0  0
    2.1811    1.2066    0.6966 C   0  0  0  0  0  4           0  0  0
    2.5774    3.5601    0.9554 C   0  0  0  0  0  4           0  0  0
    2.2491    2.6601   -1.2418 C   0  0  0  0  0  4           0  0  0
   -0.0000    0.0000    0.0000 C   0  0  2  0  0  4           0  0  0
    1.5368   -0.0000   -0.0000 C   0  0  0  0  0  4           0  0  0
  1  4  1  0     0  0
  2  5  2  0     0  0
  2  6  1  0     0  0
  3 15  1  0     0  0
  3 16  1  0     0  0
  3 17  1  0     0  0
  4  8  2  0     0  0
  4  9  1  0     0  0
  5 10  1  0     0  0
  5 18  1  0     0  0
  6 11  2  0     0  0
  7 12  2  0     0  0
  7 13  1  0     0  0
  7 18  1  0     0  0
  8 12  1  0     0  0
  9 13  2  0     0  0
 10 14  2  0     0  0
 11 14  1  0     0  0
 15 19  1  0     0  0
 18 19  1  0     0  0
M  END
> <standard_type>
pIC50

> <# Confs.>
25

> <canonical_smiles>
CN(C)CCC(C1=NC=CC=C1)C2=CC=C(Cl)C=C2

> <standard_relation>
=

> <Publication_ID>
nan

> <predicted_activity_value>
nan

> <actual_activity_value>
-0.2041199826559248

> <Compound>
Chlorpheniramine

> <standard_units>
uM

> hash
10348786106389164537

$$$$
6
XXILIB    08252103503D 0   0.00000     0.00000

 19 20  0     1  0            999 V2000
   -2.3318   -4.1200   -3.7558 Cl  0  0  0  0  0  1           0  0  0
   -1.7035    0.8118    1.5366 N   0  0  0  0  0  3           0  0  0
    3.6435    1.2722    0.7345 N   0  0  1  0  0  3           0  0  0
   -1.6748   -2.9489   -2.6778 C   0  0  0  0  0  4           0  0  0
   -0.6287    0.0000    1.3686 C   0  0  0  0  0  4           0  0  0
   -2.2889    0.8263    2.7557 C   0  0  0  0  0  4           0  0  0
   -0.6024   -1.0405   -0.9210 C   0  0  0  0  0  4           0  0  0
   -1.4013   -3.2998   -1.3575 C   0  0  0  0  0  4           0  0  0
   -1.4154   -1.6578   -3.1325 C   0  0  0  0  0  4           0  0  0
   -0.1329   -0.8000    2.3994 C   0  0  0  0  0  4           0  0  0
   -1.8617    0.0670    3.8298 C   0  0  0  0  0  4           0  0  0
   -0.8654   -2.3496   -0.4853 C   0  0  0  0  0  4           0  0  0
   -0.8793   -0.7107   -2.2573 C   0  0  0  0  0  4           0  0  0
   -0.7632   -0.7600    3.6399 C   0  0  0  0  0  4           0  0  0
    2.1811    1.2066    0.6966 C   0  0  0  0  0  4           0  0  0
    4.0751    2.4841    1.4342 C   0  0  0  0  0  4           0  0  0
    4.2213    0.0921    1.3822 C   0  0  0  0  0  4           0  0  0
   -0.0000    0.0000    0.0000 C   0  0  2  0  0  4           0  0  0
    1.5368    0.0000    0.0000 C   0  0  0  0  0  4           0  0  0
  1  4  1  0     0  0
  2  5  2  0     0  0
  2  6  1  0     0  0
  3 15  1  0     0  0
  3 16  1  0     0  0
  3 17  1  0     0  0
  4  8  2  0     0  0
  4  9  1  0     0  0
  5 10  1  0     0  0
  5 18  1  0     0  0
  6 11  2  0     0  0
  7 12  2  0     0  0
  7 13  1  0     0  0
  7 18  1  0     0  0
  8 12  1  0     0  0
  9 13  2  0     0  0
 10 14  2  0     0  0
 11 14  1  0     0  0
 15 19  1  0     0  0
 18 19  1  0     0  0
M  END
> <standard_type>
pIC50

> <# Confs.>
25

> <canonical_smiles>
CN(C)CCC(C1=NC=CC=C1)C2=CC=C(Cl)C=C2

> <standard_relation>
=

> <Publication_ID>
nan

> <predicted_activity_value>
nan

> <actual_activity_value>
-0.2041199826559248

> <Compound>
Chlorpheniramine

> <standard_units>
uM

> hash
10348786106389164537

$$$$
6
XXILIB    08252103503D 0   0.00000     0.00000

 19 20  0     1  0            999 V2000
   -2.3318   -4.1200   -3.7558 Cl  0  0  0  0  0  1           0  0  0
    0.2024   -0.2498    2.4122 N   0  0  0  0  0  3           0  0  0
    3.6435    1.2722    0.7345 N   0  0  1  0  0  3           0  0  0
   -1.6748   -2.9489   -2.6778 C   0  0  0  0  0  4           0  0  0
   -0.6287   -0.0000    1.3686 C   0  0  0  0  0  4           0  0  0
   -0.3373   -0.2508    3.6522 C   0  0  0  0  0  4           0  0  0
   -0.6024   -1.0405   -0.9210 C   0  0  0  0  0  4           0  0  0
   -1.4013   -3.2998   -1.3575 C   0  0  0  0  0  4           0  0  0
   -1.4154   -1.6578   -3.1325 C   0  0  0  0  0  4           0  0  0
   -1.9900    0.2524    1.5462 C   0  0  0  0  0  4           0  0  0
   -1.6738   -0.0116    3.9161 C   0  0  0  0  0  4           0  0  0
   -0.8654   -2.3496   -0.4853 C   0  0  0  0  0  4           0  0  0
   -0.8793   -0.7107   -2.2573 C   0  0  0  0  0  4           0  0  0
   -2.5092    0.2452    2.8378 C   0  0  0  0  0  4           0  0  0
    2.1811    1.2066    0.6966 C   0  0  0  0  0  4           0  0  0
    4.1818    0.1047    1.4356 C   0  0  0  0  0  4           0  0  0
    4.2164    1.3514   -0.6115 C   0  0  0  0  0  4           0  0  0
   -0.0000    0.0000    0.0000 C   0  0  2  0  0  4           0  0  0
    1.5368    0.0000    0.0000 C   0  0  0  0  0  4           0  0  0
  1  4  1  0     0  0
  2  5  2  0     0  0
  2  6  1  0     0  0
  3 15  1  0     0  0
  3 16  1  0     0  0
  3 17  1  0     0  0
  4  8  2  0     0  0
  4  9  1  0     0  0
  5 10  1  0     0  0
  5 18  1  0     0  0
  6 11  2  0     0  0
  7 12  2  0     0  0
  7 13  1  0     0  0
  7 18  1  0     0  0
  8 12  1  0     0  0
  9 13  2  0     0  0
 10 14  2  0     0  0
 11 14  1  0     0  0
 15 19  1  0     0  0
 18 19  1  0     0  0
M  END
> <standard_type>
pIC50

> <# Confs.>
25

> <canonical_smiles>
CN(C)CCC(C1=NC=CC=C1)C2=CC=C(Cl)C=C2

> <standard_relation>
=

> <Publication_ID>
nan

> <predicted_activity_value>
nan

> <actual_activity_value>
-0.2041199826559248

> <Compound>
Chlorpheniramine

> <standard_units>
uM

> hash
10348786106389164537

$$$$
6
XXILIB    08252103503D 0   0.00000     0.00000

 19 20  0     1  0            999 V2000
   -2.3738   -4.2322   -3.6015 Cl  0  0  0  0  0  1           0  0  0
   -0.6528    1.1909    2.0193 N   0  0  0  0  0  3           0  0  0
    3.6435    1.2722    0.7345 N   0  0  1  0  0  3           0  0  0
   -1.6999   -3.0184   -2.5829 C   0  0  0  0  0  4           0  0  0
   -0.6287    0.0000    1.3686 C   0  0  0  0  0  4           0  0  0
   -1.2163    1.2182    3.2484 C   0  0  0  0  0  4           0  0  0
   -0.6024   -1.0405   -0.9210 C   0  0  0  0  0  4           0  0  0
   -2.4070   -1.8412   -2.3477 C   0  0  0  0  0  4           0  0  0
   -0.4534   -3.2217   -1.9949 C   0  0  0  0  0  4           0  0  0
   -1.1627   -1.1629    1.9263 C   0  0  0  0  0  4           0  0  0
   -1.7668    0.1139    3.8734 C   0  0  0  0  0  4           0  0  0
   -1.8605   -0.8590   -1.5185 C   0  0  0  0  0  4           0  0  0
    0.0895   -2.2374   -1.1662 C   0  0  0  0  0  4           0  0  0
   -1.7366   -1.0954    3.1927 C   0  0  0  0  0  4           0  0  0
    2.1811    1.2066    0.6966 C   0  0  0  0  0  4           0  0  0
    4.1818    1.2956   -0.6271 C   0  0  0  0  0  4           0  0  0
    4.1133    2.4459    1.4748 C   0  0  0  0  0  4           0  0  0
   -0.0000    0.0000    0.0000 C   0  0  2  0  0  4           0  0  0
    1.5368    0.0000   -0.0000 C   0  0  0  0  0  4           0  0  0
  1  4  1  0     0  0
  2  5  2  0     0  0
  2  6  1  0     0  0
  3 15  1  0     0  0
  3 16  1  0     0  0
  3 17  1  0     0  0
  4  8  2  0     0  0
  4  9  1  0     0  0
  5 10  1  0     0  0
  5 18  1  0     0  0
  6 11  2  0     0  0
  7 12  2  0     0  0
  7 13  1  0     0  0
  7 18  1  0     0  0
  8 12  1  0     0  0
  9 13  2  0     0  0
 10 14  2  0     0  0
 11 14  1  0     0  0
 15 19  1  0     0  0
 18 19  1  0     0  0
M  END
> <standard_type>
pIC50

> <# Confs.>
25

> <canonical_smiles>
CN(C)CCC(C1=NC=CC=C1)C2=CC=C(Cl)C=C2

> <standard_relation>
=

> <Publication_ID>
nan

> <predicted_activity_value>
nan

> <actual_activity_value>
-0.2041199826559248

> <Compound>
Chlorpheniramine

> <standard_units>
uM

> hash
10348786106389164537

$$$$
6
XXILIB    08252103503D 0   0.00000     0.00000

 19 20  0     1  0            999 V2000
   -2.3738   -4.2322   -3.6015 Cl  0  0  0  0  0  1           0  0  0
   -0.5353   -1.1563    2.0733 N   0  0  0  0  0  3           0  0  0
    3.6435    1.2722    0.7345 N   0  0  1  0  0  3           0  0  0
   -1.6999   -3.0184   -2.5829 C   0  0  0  0  0  4           0  0  0
   -0.6287    0.0000    1.3686 C   0  0  0  0  0  4           0  0  0
   -1.0882   -1.1804    3.3073 C   0  0  0  0  0  4           0  0  0
   -0.6024   -1.0405   -0.9210 C   0  0  0  0  0  4           0  0  0
   -2.4070   -1.8412   -2.3477 C   0  0  0  0  0  4           0  0  0
   -0.4534   -3.2217   -1.9949 C   0  0  0  0  0  4           0  0  0
   -1.2631    1.1333    1.8802 C   0  0  0  0  0  4           0  0  0
   -1.7346   -0.1044    3.8882 C   0  0  0  0  0  4           0  0  0
   -1.8605   -0.8590   -1.5185 C   0  0  0  0  0  4           0  0  0
    0.0895   -2.2374   -1.1662 C   0  0  0  0  0  4           0  0  0
   -1.8186    1.0712    3.1551 C   0  0  0  0  0  4           0  0  0
    2.1811    1.2066    0.6966 C   0  0  0  0  0  4           0  0  0
    4.1818    1.2956   -0.6271 C   0  0  0  0  0  4           0  0  0
    4.1133    2.4459    1.4748 C   0  0  0  0  0  4           0  0  0
   -0.0000    0.0000    0.0000 C   0  0  2  0  0  4           0  0  0
    1.5368    0.0000   -0.0000 C   0  0  0  0  0  4           0  0  0
  1  4  1  0     0  0
  2  5  2  0     0  0
  2  6  1  0     0  0
  3 15  1  0     0  0
  3 16  1  0     0  0
  3 17  1  0     0  0
  4  8  2  0     0  0
  4  9  1  0     0  0
  5 10  1  0     0  0
  5 18  1  0     0  0
  6 11  2  0     0  0
  7 12  2  0     0  0
  7 13  1  0     0  0
  7 18  1  0     0  0
  8 12  1  0     0  0
  9 13  2  0     0  0
 10 14  2  0     0  0
 11 14  1  0     0  0
 15 19  1  0     0  0
 18 19  1  0     0  0
M  END
> <standard_type>
pIC50

> <# Confs.>
25

> <canonical_smiles>
CN(C)CCC(C1=NC=CC=C1)C2=CC=C(Cl)C=C2

> <standard_relation>
=

> <Publication_ID>
nan

> <predicted_activity_value>
nan

> <actual_activity_value>
-0.2041199826559248

> <Compound>
Chlorpheniramine

> <standard_units>
uM

> hash
10348786106389164537

$$$$
6
XXILIB    08252103503D 0   0.00000     0.00000

 19 20  0     1  0            999 V2000
   -2.3738   -4.2322   -3.6015 Cl  0  0  0  0  0  1           0  0  0
   -1.1068   -1.1909    1.8107 N   0  0  0  0  0  3           0  0  0
    1.8795    2.5396    0.1707 N   0  0  1  0  0  3           0  0  0
   -1.6999   -3.0184   -2.5829 C   0  0  0  0  0  4           0  0  0
   -0.6287   -0.0000    1.3686 C   0  0  0  0  0  4           0  0  0
   -1.6722   -1.2182    3.0390 C   0  0  0  0  0  4           0  0  0
   -0.6024   -1.0405   -0.9210 C   0  0  0  0  0  4           0  0  0
   -2.4070   -1.8412   -2.3477 C   0  0  0  0  0  4           0  0  0
   -0.4534   -3.2217   -1.9949 C   0  0  0  0  0  4           0  0  0
   -0.7040    1.1629    2.1370 C   0  0  0  0  0  4           0  0  0
   -1.7878   -0.1139    3.8638 C   0  0  0  0  0  4           0  0  0
   -1.8605   -0.8590   -1.5185 C   0  0  0  0  0  4           0  0  0
    0.0895   -2.2374   -1.1662 C   0  0  0  0  0  4           0  0  0
   -1.2910    1.0954    3.3974 C   0  0  0  0  0  4           0  0  0
    2.1811    1.2066    0.6966 C   0  0  0  0  0  4           0  0  0
    2.5774    3.5601    0.9554 C   0  0  0  0  0  4           0  0  0
    2.2491    2.6601   -1.2418 C   0  0  0  0  0  4           0  0  0
   -0.0000    0.0000    0.0000 C   0  0  2  0  0  4           0  0  0
    1.5368   -0.0000   -0.0000 C   0  0  0  0  0  4           0  0  0
  1  4  1  0     0  0
  2  5  2  0     0  0
  2  6  1  0     0  0
  3 15  1  0     0  0
  3 16  1  0     0  0
  3 17  1  0     0  0
  4  8  2  0     0  0
  4  9  1  0     0  0
  5 10  1  0     0  0
  5 18  1  0     0  0
  6 11  2  0     0  0
  7 12  2  0     0  0
  7 13  1  0     0  0
  7 18  1  0     0  0
  8 12  1  0     0  0
  9 13  2  0     0  0
 10 14  2  0     0  0
 11 14  1  0     0  0
 15 19  1  0     0  0
 18 19  1  0     0  0
M  END
> <standard_type>
pIC50

> <# Confs.>
25

> <canonical_smiles>
CN(C)CCC(C1=NC=CC=C1)C2=CC=C(Cl)C=C2

> <standard_relation>
=

> <Publication_ID>
nan

> <predicted_activity_value>
nan

> <actual_activity_value>
-0.2041199826559248

> <Compound>
Chlorpheniramine

> <standard_units>
uM

> hash
10348786106389164537

$$$$
6
XXILIB    08252103503D 0   0.00000     0.00000

 19 20  0     1  0            999 V2000
   -2.3318   -4.1200   -3.7558 Cl  0  0  0  0  0  1           0  0  0
   -1.7035    0.8118    1.5366 N   0  0  0  0  0  3           0  0  0
    1.8795    2.5396    0.1707 N   0  0  1  0  0  3           0  0  0
   -1.6748   -2.9489   -2.6778 C   0  0  0  0  0  4           0  0  0
   -0.6287    0.0000    1.3686 C   0  0  0  0  0  4           0  0  0
   -2.2889    0.8263    2.7557 C   0  0  0  0  0  4           0  0  0
   -0.6024   -1.0405   -0.9210 C   0  0  0  0  0  4           0  0  0
   -1.4013   -3.2998   -1.3575 C   0  0  0  0  0  4           0  0  0
   -1.4154   -1.6578   -3.1325 C   0  0  0  0  0  4           0  0  0
   -0.1329   -0.8000    2.3994 C   0  0  0  0  0  4           0  0  0
   -1.8617    0.0670    3.8298 C   0  0  0  0  0  4           0  0  0
   -0.8654   -2.3496   -0.4853 C   0  0  0  0  0  4           0  0  0
   -0.8793   -0.7107   -2.2573 C   0  0  0  0  0  4           0  0  0
   -0.7632   -0.7600    3.6399 C   0  0  0  0  0  4           0  0  0
    2.1811    1.2066    0.6966 C   0  0  0  0  0  4           0  0  0
    2.5774    3.5601    0.9554 C   0  0  0  0  0  4           0  0  0
    2.2491    2.6601   -1.2418 C   0  0  0  0  0  4           0  0  0
   -0.0000    0.0000    0.0000 C   0  0  2  0  0  4           0  0  0
    1.5368   -0.0000   -0.0000 C   0  0  0  0  0  4           0  0  0
  1  4  1  0     0  0
  2  5  2  0     0  0
  2  6  1  0     0  0
  3 15  1  0     0  0
  3 16  1  0     0  0
  3 17  1  0     0  0
  4  8  2  0     0  0
  4  9  1  0     0  0
  5 10  1  0     0  0
  5 18  1  0     0  0
  6 11  2  0     0  0
  7 12  2  0     0  0
  7 13  1  0     0  0
  7 18  1  0     0  0
  8 12  1  0     0  0
  9 13  2  0     0  0
 10 14  2  0     0  0
 11 14  1  0     0  0
 15 19  1  0     0  0
 18 19  1  0     0  0
M  END
> <standard_type>
pIC50

> <# Confs.>
25

> <canonical_smiles>
CN(C)CCC(C1=NC=CC=C1)C2=CC=C(Cl)C=C2

> <standard_relation>
=

> <Publication_ID>
nan

> <predicted_activity_value>
nan

> <actual_activity_value>
-0.2041199826559248

> <Compound>
Chlorpheniramine

> <standard_units>
uM

> hash
10348786106389164537

$$$$
6
XXILIB    08252103503D 0   0.00000     0.00000

 19 20  0     1  0            999 V2000
   -2.3318   -4.1200   -3.7558 Cl  0  0  0  0  0  1           0  0  0
    0.1709    0.3791    2.3977 N   0  0  0  0  0  3           0  0  0
    1.8795    1.1220   -2.2847 N   0  0  1  0  0  3           0  0  0
   -1.6748   -2.9489   -2.6778 C   0  0  0  0  0  4           0  0  0
   -0.6287   -0.0000    1.3686 C   0  0  0  0  0  4           0  0  0
   -0.3716    0.3919    3.6365 C   0  0  0  0  0  4           0  0  0
   -0.6024   -1.0405   -0.9210 C   0  0  0  0  0  4           0  0  0
   -1.4013   -3.2998   -1.3575 C   0  0  0  0  0  4           0  0  0
   -1.4154   -1.6578   -3.1325 C   0  0  0  0  0  4           0  0  0
   -1.9631   -0.3628    1.5585 C   0  0  0  0  0  4           0  0  0
   -1.6824    0.0469    3.9122 C   0  0  0  0  0  4           0  0  0
   -0.8654   -2.3496   -0.4853 C   0  0  0  0  0  4           0  0  0
   -0.8793   -0.7107   -2.2573 C   0  0  0  0  0  4           0  0  0
   -2.4872   -0.3354    2.8479 C   0  0  0  0  0  4           0  0  0
    2.1811    0.0000   -1.3933 C   0  0  0  0  0  4           0  0  0
    2.3113    2.3807   -1.6733 C   0  0  0  0  0  4           0  0  0
    2.5184    0.9603   -3.5930 C   0  0  0  0  0  4           0  0  0
   -0.0000    0.0000    0.0000 C   0  0  2  0  0  4           0  0  0
    1.5368    0.0000    0.0000 C   0  0  0  0  0  4           0  0  0
  1  4  1  0     0  0
  2  5  2  0     0  0
  2  6  1  0     0  0
  3 15  1  0     0  0
  3 16  1  0     0  0
  3 17  1  0     0  0
  4  8  2  0     0  0
  4  9  1  0     0  0
  5 10  1  0     0  0
  5 18  1  0     0  0
  6 11  2  0     0  0
  7 12  2  0     0  0
  7 13  1  0     0  0
  7 18  1  0     0  0
  8 12  1  0     0  0
  9 13  2  0     0  0
 10 14  2  0     0  0
 11 14  1  0     0  0
 15 19  1  0     0  0
 18 19  1  0     0  0
M  END
> <standard_type>
pIC50

> <# Confs.>
25

> <canonical_smiles>
CN(C)CCC(C1=NC=CC=C1)C2=CC=C(Cl)C=C2

> <standard_relation>
=

> <Publication_ID>
nan

> <predicted_activity_value>
nan

> <actual_activity_value>
-0.2041199826559248

> <Compound>
Chlorpheniramine

> <standard_units>
uM

> hash
10348786106389164537

$$$$
6
XXILIB    08252103503D 0   0.00000     0.00000

 19 20  0     1  0            999 V2000
   -2.3318   -4.1200   -3.7558 Cl  0  0  0  0  0  1           0  0  0
    0.1709    0.3791    2.3977 N   0  0  0  0  0  3           0  0  0
    3.6435   -1.2722    0.7345 N   0  0  1  0  0  3           0  0  0
   -1.6748   -2.9489   -2.6778 C   0  0  0  0  0  4           0  0  0
   -0.6287   -0.0000    1.3686 C   0  0  0  0  0  4           0  0  0
   -0.3716    0.3919    3.6365 C   0  0  0  0  0  4           0  0  0
   -0.6024   -1.0405   -0.9210 C   0  0  0  0  0  4           0  0  0
   -1.4013   -3.2998   -1.3575 C   0  0  0  0  0  4           0  0  0
   -1.4154   -1.6578   -3.1325 C   0  0  0  0  0  4           0  0  0
   -1.9631   -0.3628    1.5585 C   0  0  0  0  0  4           0  0  0
   -1.6824    0.0469    3.9122 C   0  0  0  0  0  4           0  0  0
   -0.8654   -2.3496   -0.4853 C   0  0  0  0  0  4           0  0  0
   -0.8793   -0.7107   -2.2573 C   0  0  0  0  0  4           0  0  0
   -2.4872   -0.3354    2.8479 C   0  0  0  0  0  4           0  0  0
    2.1811   -1.2066    0.6966 C   0  0  0  0  0  4           0  0  0
    4.1818   -0.1047    1.4356 C   0  0  0  0  0  4           0  0  0
    4.1133   -2.5001    1.3808 C   0  0  0  0  0  4           0  0  0
   -0.0000    0.0000    0.0000 C   0  0  2  0  0  4           0  0  0
    1.5368   -0.0000    0.0000 C   0  0  0  0  0  4           0  0  0
  1  4  1  0     0  0
  2  5  2  0     0  0
  2  6  1  0     0  0
  3 15  1  0     0  0
  3 16  1  0     0  0
  3 17  1  0     0  0
  4  8  2  0     0  0
  4  9  1  0     0  0
  5 10  1  0     0  0
  5 18  1  0     0  0
  6 11  2  0     0  0
  7 12  2  0     0  0
  7 13  1  0     0  0
  7 18  1  0     0  0
  8 12  1  0     0  0
  9 13  2  0     0  0
 10 14  2  0     0  0
 11 14  1  0     0  0
 15 19  1  0     0  0
 18 19  1  0     0  0
M  END
> <standard_type>
pIC50

> <# Confs.>
25

> <canonical_smiles>
CN(C)CCC(C1=NC=CC=C1)C2=CC=C(Cl)C=C2

> <standard_relation>
=

> <Publication_ID>
nan

> <predicted_activity_value>
nan

> <actual_activity_value>
-0.2041199826559248

> <Compound>
Chlorpheniramine

> <standard_units>
uM

> hash
10348786106389164537

$$$$
6
XXILIB    08252103503D 0   0.00000     0.00000

 19 20  0     1  0            999 V2000
   -2.3318   -4.1200   -3.7558 Cl  0  0  0  0  0  1           0  0  0
   -1.7035    0.8118    1.5366 N   0  0  0  0  0  3           0  0  0
    3.6435    0.0000   -1.4690 N   0  0  1  0  0  3           0  0  0
   -1.6748   -2.9489   -2.6778 C   0  0  0  0  0  4           0  0  0
   -0.6287    0.0000    1.3686 C   0  0  0  0  0  4           0  0  0
   -2.2889    0.8263    2.7557 C   0  0  0  0  0  4           0  0  0
   -0.6024   -1.0405   -0.9210 C   0  0  0  0  0  4           0  0  0
   -1.4013   -3.2998   -1.3575 C   0  0  0  0  0  4           0  0  0
   -1.4154   -1.6578   -3.1325 C   0  0  0  0  0  4           0  0  0
   -0.1329   -0.8000    2.3994 C   0  0  0  0  0  4           0  0  0
   -1.8617    0.0670    3.8298 C   0  0  0  0  0  4           0  0  0
   -0.8654   -2.3496   -0.4853 C   0  0  0  0  0  4           0  0  0
   -0.8793   -0.7107   -2.2573 C   0  0  0  0  0  4           0  0  0
   -0.7632   -0.7600    3.6399 C   0  0  0  0  0  4           0  0  0
    2.1811    0.0000   -1.3933 C   0  0  0  0  0  4           0  0  0
    4.0751    0.0000   -2.8683 C   0  0  0  0  0  4           0  0  0
    4.2213    1.1510   -0.7708 C   0  0  0  0  0  4           0  0  0
   -0.0000    0.0000    0.0000 C   0  0  2  0  0  4           0  0  0
    1.5368    0.0000    0.0000 C   0  0  0  0  0  4           0  0  0
  1  4  1  0     0  0
  2  5  2  0     0  0
  2  6  1  0     0  0
  3 15  1  0     0  0
  3 16  1  0     0  0
  3 17  1  0     0  0
  4  8  2  0     0  0
  4  9  1  0     0  0
  5 10  1  0     0  0
  5 18  1  0     0  0
  6 11  2  0     0  0
  7 12  2  0     0  0
  7 13  1  0     0  0
  7 18  1  0     0  0
  8 12  1  0     0  0
  9 13  2  0     0  0
 10 14  2  0     0  0
 11 14  1  0     0  0
 15 19  1  0     0  0
 18 19  1  0     0  0
M  END
> <standard_type>
pIC50

> <# Confs.>
25

> <canonical_smiles>
CN(C)CCC(C1=NC=CC=C1)C2=CC=C(Cl)C=C2

> <standard_relation>
=

> <Publication_ID>
nan

> <predicted_activity_value>
nan

> <actual_activity_value>
-0.2041199826559248

> <Compound>
Chlorpheniramine

> <standard_units>
uM

> hash
10348786106389164537

$$$$
6
XXILIB    08252103503D 0   0.00000     0.00000

 19 20  0     1  0            999 V2000
   -2.3318   -4.1200   -3.7558 Cl  0  0  0  0  0  1           0  0  0
   -1.7035    0.8118    1.5366 N   0  0  0  0  0  3           0  0  0
    1.8795    1.1220   -2.2847 N   0  0  1  0  0  3           0  0  0
   -1.6748   -2.9489   -2.6778 C   0  0  0  0  0  4           0  0  0
   -0.6287    0.0000    1.3686 C   0  0  0  0  0  4           0  0  0
   -2.2889    0.8263    2.7557 C   0  0  0  0  0  4           0  0  0
   -0.6024   -1.0405   -0.9210 C   0  0  0  0  0  4           0  0  0
   -1.4013   -3.2998   -1.3575 C   0  0  0  0  0  4           0  0  0
   -1.4154   -1.6578   -3.1325 C   0  0  0  0  0  4           0  0  0
   -0.1329   -0.8000    2.3994 C   0  0  0  0  0  4           0  0  0
   -1.8617    0.0670    3.8298 C   0  0  0  0  0  4           0  0  0
   -0.8654   -2.3496   -0.4853 C   0  0  0  0  0  4           0  0  0
   -0.8793   -0.7107   -2.2573 C   0  0  0  0  0  4           0  0  0
   -0.7632   -0.7600    3.6399 C   0  0  0  0  0  4           0  0  0
    2.1811    0.0000   -1.3933 C   0  0  0  0  0  4           0  0  0
    2.3113    2.3807   -1.6733 C   0  0  0  0  0  4           0  0  0
    2.5184    0.9603   -3.5930 C   0  0  0  0  0  4           0  0  0
   -0.0000    0.0000    0.0000 C   0  0  2  0  0  4           0  0  0
    1.5368    0.0000    0.0000 C   0  0  0  0  0  4           0  0  0
  1  4  1  0     0  0
  2  5  2  0     0  0
  2  6  1  0     0  0
  3 15  1  0     0  0
  3 16  1  0     0  0
  3 17  1  0     0  0
  4  8  2  0     0  0
  4  9  1  0     0  0
  5 10  1  0     0  0
  5 18  1  0     0  0
  6 11  2  0     0  0
  7 12  2  0     0  0
  7 13  1  0     0  0
  7 18  1  0     0  0
  8 12  1  0     0  0
  9 13  2  0     0  0
 10 14  2  0     0  0
 11 14  1  0     0  0
 15 19  1  0     0  0
 18 19  1  0     0  0
M  END
> <standard_type>
pIC50

> <# Confs.>
25

> <canonical_smiles>
CN(C)CCC(C1=NC=CC=C1)C2=CC=C(Cl)C=C2

> <standard_relation>
=

> <Publication_ID>
nan

> <predicted_activity_value>
nan

> <actual_activity_value>
-0.2041199826559248

> <Compound>
Chlorpheniramine

> <standard_units>
uM

> hash
10348786106389164537

$$$$
6
XXILIB    08252103503D 0   0.00000     0.00000

 19 20  0     1  0            999 V2000
   -2.3318   -4.1200   -3.7558 Cl  0  0  0  0  0  1           0  0  0
   -0.5353   -1.1563    2.0733 N   0  0  0  0  0  3           0  0  0
    3.6435   -1.2722    0.7345 N   0  0  1  0  0  3           0  0  0
   -1.6748   -2.9489   -2.6778 C   0  0  0  0  0  4           0  0  0
   -0.6287    0.0000    1.3686 C   0  0  0  0  0  4           0  0  0
   -1.0882   -1.1804    3.3073 C   0  0  0  0  0  4           0  0  0
   -0.6024   -1.0405   -0.9210 C   0  0  0  0  0  4           0  0  0
   -1.4013   -3.2998   -1.3575 C   0  0  0  0  0  4           0  0  0
   -1.4154   -1.6578   -3.1325 C   0  0  0  0  0  4           0  0  0
   -1.2631    1.1333    1.8802 C   0  0  0  0  0  4           0  0  0
   -1.7346   -0.1044    3.8882 C   0  0  0  0  0  4           0  0  0
   -0.8654   -2.3496   -0.4853 C   0  0  0  0  0  4           0  0  0
   -0.8793   -0.7107   -2.2573 C   0  0  0  0  0  4           0  0  0
   -1.8186    1.0712    3.1551 C   0  0  0  0  0  4           0  0  0
    2.1811   -1.2066    0.6966 C   0  0  0  0  0  4           0  0  0
    4.0751   -2.4841    1.4342 C   0  0  0  0  0  4           0  0  0
    4.2213   -1.2431   -0.6114 C   0  0  0  0  0  4           0  0  0
   -0.0000    0.0000    0.0000 C   0  0  2  0  0  4           0  0  0
    1.5368    0.0000    0.0000 C   0  0  0  0  0  4           0  0  0
  1  4  1  0     0  0
  2  5  2  0     0  0
  2  6  1  0     0  0
  3 15  1  0     0  0
  3 16  1  0     0  0
  3 17  1  0     0  0
  4  8  2  0     0  0
  4  9  1  0     0  0
  5 10  1  0     0  0
  5 18  1  0     0  0
  6 11  2  0     0  0
  7 12  2  0     0  0
  7 13  1  0     0  0
  7 18  1  0     0  0
  8 12  1  0     0  0
  9 13  2  0     0  0
 10 14  2  0     0  0
 11 14  1  0     0  0
 15 19  1  0     0  0
 18 19  1  0     0  0
M  END
> <standard_type>
pIC50

> <# Confs.>
25

> <canonical_smiles>
CN(C)CCC(C1=NC=CC=C1)C2=CC=C(Cl)C=C2

> <standard_relation>
=

> <Publication_ID>
nan

> <predicted_activity_value>
nan

> <actual_activity_value>
-0.2041199826559248

> <Compound>
Chlorpheniramine

> <standard_units>
uM

> hash
10348786106389164537

$$$$
6
XXILIB    08252103503D 0   0.00000     0.00000

 19 20  0     1  0            999 V2000
   -2.3738   -4.2322   -3.6015 Cl  0  0  0  0  0  1           0  0  0
   -1.2243    1.1563    1.7568 N   0  0  0  0  0  3           0  0  0
    3.6435    0.0000   -1.4690 N   0  0  1  0  0  3           0  0  0
   -1.6999   -3.0184   -2.5829 C   0  0  0  0  0  4           0  0  0
   -0.6287   -0.0000    1.3686 C   0  0  0  0  0  4           0  0  0
   -1.8003    1.1804    2.9801 C   0  0  0  0  0  4           0  0  0
   -0.6024   -1.0405   -0.9210 C   0  0  0  0  0  4           0  0  0
   -2.4070   -1.8412   -2.3477 C   0  0  0  0  0  4           0  0  0
   -0.4534   -3.2217   -1.9949 C   0  0  0  0  0  4           0  0  0
   -0.6036   -1.1333    2.1831 C   0  0  0  0  0  4           0  0  0
   -1.8199    0.1044    3.8490 C   0  0  0  0  0  4           0  0  0
   -1.8605   -0.8590   -1.5185 C   0  0  0  0  0  4           0  0  0
    0.0895   -2.2374   -1.1662 C   0  0  0  0  0  4           0  0  0
   -1.2090   -1.0712    3.4351 C   0  0  0  0  0  4           0  0  0
    2.1811    0.0000   -1.3933 C   0  0  0  0  0  4           0  0  0
    4.0751    0.0000   -2.8683 C   0  0  0  0  0  4           0  0  0
    4.2213    1.1510   -0.7708 C   0  0  0  0  0  4           0  0  0
   -0.0000    0.0000    0.0000 C   0  0  2  0  0  4           0  0  0
    1.5368    0.0000    0.0000 C   0  0  0  0  0  4           0  0  0
  1  4  1  0     0  0
  2  5  2  0     0  0
  2  6  1  0     0  0
  3 15  1  0     0  0
  3 16  1  0     0  0
  3 17  1  0     0  0
  4  8  2  0     0  0
  4  9  1  0     0  0
  5 10  1  0     0  0
  5 18  1  0     0  0
  6 11  2  0     0  0
  7 12  2  0     0  0
  7 13  1  0     0  0
  7 18  1  0     0  0
  8 12  1  0     0  0
  9 13  2  0     0  0
 10 14  2  0     0  0
 11 14  1  0     0  0
 15 19  1  0     0  0
 18 19  1  0     0  0
M  END
> <standard_type>
pIC50

> <# Confs.>
25

> <canonical_smiles>
CN(C)CCC(C1=NC=CC=C1)C2=CC=C(Cl)C=C2

> <standard_relation>
=

> <Publication_ID>
nan

> <predicted_activity_value>
nan

> <actual_activity_value>
-0.2041199826559248

> <Compound>
Chlorpheniramine

> <standard_units>
uM

> hash
10348786106389164537

$$$$
6
XXILIB    08252103503D 0   0.00000     0.00000

 19 20  0     1  0            999 V2000
   -2.3318   -4.1200   -3.7558 Cl  0  0  0  0  0  1           0  0  0
   -1.9620    0.2498    1.4179 N   0  0  0  0  0  3           0  0  0
    3.6435    0.0000   -1.4690 N   0  0  1  0  0  3           0  0  0
   -1.6748   -2.9489   -2.6778 C   0  0  0  0  0  4           0  0  0
   -0.6287    0.0000    1.3686 C   0  0  0  0  0  4           0  0  0
   -2.5512    0.2508    2.6352 C   0  0  0  0  0  4           0  0  0
   -0.6024   -1.0405   -0.9210 C   0  0  0  0  0  4           0  0  0
   -1.4013   -3.2998   -1.3575 C   0  0  0  0  0  4           0  0  0
   -1.4154   -1.6578   -3.1325 C   0  0  0  0  0  4           0  0  0
    0.1233   -0.2524    2.5171 C   0  0  0  0  0  4           0  0  0
   -1.8808    0.0116    3.8210 C   0  0  0  0  0  4           0  0  0
   -0.8654   -2.3496   -0.4853 C   0  0  0  0  0  4           0  0  0
   -0.8793   -0.7107   -2.2573 C   0  0  0  0  0  4           0  0  0
   -0.5184   -0.2452    3.7524 C   0  0  0  0  0  4           0  0  0
    2.1811    0.0000   -1.3933 C   0  0  0  0  0  4           0  0  0
    4.1818   -1.1909   -0.8084 C   0  0  0  0  0  4           0  0  0
    4.1133    0.0542   -2.8556 C   0  0  0  0  0  4           0  0  0
   -0.0000    0.0000    0.0000 C   0  0  2  0  0  4           0  0  0
    1.5368   -0.0000   -0.0000 C   0  0  0  0  0  4           0  0  0
  1  4  1  0     0  0
  2  5  2  0     0  0
  2  6  1  0     0  0
  3 15  1  0     0  0
  3 16  1  0     0  0
  3 17  1  0     0  0
  4  8  2  0     0  0
  4  9  1  0     0  0
  5 10  1  0     0  0
  5 18  1  0     0  0
  6 11  2  0     0  0
  7 12  2  0     0  0
  7 13  1  0     0  0
  7 18  1  0     0  0
  8 12  1  0     0  0
  9 13  2  0     0  0
 10 14  2  0     0  0
 11 14  1  0     0  0
 15 19  1  0     0  0
 18 19  1  0     0  0
M  END
> <standard_type>
pIC50

> <# Confs.>
25

> <canonical_smiles>
CN(C)CCC(C1=NC=CC=C1)C2=CC=C(Cl)C=C2

> <standard_relation>
=

> <Publication_ID>
nan

> <predicted_activity_value>
nan

> <actual_activity_value>
-0.2041199826559248

> <Compound>
Chlorpheniramine

> <standard_units>
uM

> hash
10348786106389164537

$$$$
6
XXILIB    08252103503D 0   0.00000     0.00000

 19 20  0     1  0            999 V2000
   -2.3025   -4.2012   -3.6832 Cl  0  0  0  0  0  1           0  0  0
   -0.0561   -0.8118    2.2934 N   0  0  0  0  0  3           0  0  0
    1.8795    2.5396    0.1707 N   0  0  1  0  0  3           0  0  0
   -1.6563   -2.9989   -2.6333 C   0  0  0  0  0  4           0  0  0
   -0.6287    0.0000    1.3686 C   0  0  0  0  0  4           0  0  0
   -0.5996   -0.8263    3.5318 C   0  0  0  0  0  4           0  0  0
   -0.6024   -1.0405   -0.9210 C   0  0  0  0  0  4           0  0  0
   -2.3566   -2.6333   -1.4857 C   0  0  0  0  0  4           0  0  0
   -0.4342   -2.4015   -2.9341 C   0  0  0  0  0  4           0  0  0
   -1.7338    0.8000    1.6639 C   0  0  0  0  0  4           0  0  0
   -1.6929   -0.0670    3.9073 C   0  0  0  0  0  4           0  0  0
   -1.8295   -1.6604   -0.6334 C   0  0  0  0  0  4           0  0  0
    0.0895   -1.4292   -2.0792 C   0  0  0  0  0  4           0  0  0
   -2.2644    0.7600    2.9502 C   0  0  0  0  0  4           0  0  0
    2.1811    1.2066    0.6966 C   0  0  0  0  0  4           0  0  0
    2.5774    3.5601    0.9554 C   0  0  0  0  0  4           0  0  0
    2.2491    2.6601   -1.2418 C   0  0  0  0  0  4           0  0  0
   -0.0000    0.0000    0.0000 C   0  0  2  0  0  4           0  0  0
    1.5368   -0.0000   -0.0000 C   0  0  0  0  0  4           0  0  0
  1  4  1  0     0  0
  2  5  2  0     0  0
  2  6  1  0     0  0
  3 15  1  0     0  0
  3 16  1  0     0  0
  3 17  1  0     0  0
  4  8  2  0     0  0
  4  9  1  0     0  0
  5 10  1  0     0  0
  5 18  1  0     0  0
  6 11  2  0     0  0
  7 12  2  0     0  0
  7 13  1  0     0  0
  7 18  1  0     0  0
  8 12  1  0     0  0
  9 13  2  0     0  0
 10 14  2  0     0  0
 11 14  1  0     0  0
 15 19  1  0     0  0
 18 19  1  0     0  0
M  END
> <standard_type>
pIC50

> <# Confs.>
25

> <canonical_smiles>
CN(C)CCC(C1=NC=CC=C1)C2=CC=C(Cl)C=C2

> <standard_relation>
=

> <Publication_ID>
nan

> <predicted_activity_value>
nan

> <actual_activity_value>
-0.2041199826559248

> <Compound>
Chlorpheniramine

> <standard_units>
uM

> hash
10348786106389164537

$$$$
6
XXILIB    08252103503D 0   0.00000     0.00000

 19 20  0     1  0            999 V2000
   -2.3318   -4.1200   -3.7558 Cl  0  0  0  0  0  1           0  0  0
   -0.5353   -1.1563    2.0733 N   0  0  0  0  0  3           0  0  0
    3.6435    1.2722    0.7345 N   0  0  1  0  0  3           0  0  0
   -1.6748   -2.9489   -2.6778 C   0  0  0  0  0  4           0  0  0
   -0.6287    0.0000    1.3686 C   0  0  0  0  0  4           0  0  0
   -1.0882   -1.1804    3.3073 C   0  0  0  0  0  4           0  0  0
   -0.6024   -1.0405   -0.9210 C   0  0  0  0  0  4           0  0  0
   -1.4013   -3.2998   -1.3575 C   0  0  0  0  0  4           0  0  0
   -1.4154   -1.6578   -3.1325 C   0  0  0  0  0  4           0  0  0
   -1.2631    1.1333    1.8802 C   0  0  0  0  0  4           0  0  0
   -1.7346   -0.1044    3.8882 C   0  0  0  0  0  4           0  0  0
   -0.8654   -2.3496   -0.4853 C   0  0  0  0  0  4           0  0  0
   -0.8793   -0.7107   -2.2573 C   0  0  0  0  0  4           0  0  0
   -1.8186    1.0712    3.1551 C   0  0  0  0  0  4           0  0  0
    2.1811    1.2066    0.6966 C   0  0  0  0  0  4           0  0  0
    4.1818    1.2956   -0.6271 C   0  0  0  0  0  4           0  0  0
    4.1133    2.4459    1.4748 C   0  0  0  0  0  4           0  0  0
   -0.0000    0.0000    0.0000 C   0  0  2  0  0  4           0  0  0
    1.5368    0.0000   -0.0000 C   0  0  0  0  0  4           0  0  0
  1  4  1  0     0  0
  2  5  2  0     0  0
  2  6  1  0     0  0
  3 15  1  0     0  0
  3 16  1  0     0  0
  3 17  1  0     0  0
  4  8  2  0     0  0
  4  9  1  0     0  0
  5 10  1  0     0  0
  5 18  1  0     0  0
  6 11  2  0     0  0
  7 12  2  0     0  0
  7 13  1  0     0  0
  7 18  1  0     0  0
  8 12  1  0     0  0
  9 13  2  0     0  0
 10 14  2  0     0  0
 11 14  1  0     0  0
 15 19  1  0     0  0
 18 19  1  0     0  0
M  END
> <standard_type>
pIC50

> <# Confs.>
25

> <canonical_smiles>
CN(C)CCC(C1=NC=CC=C1)C2=CC=C(Cl)C=C2

> <standard_relation>
=

> <Publication_ID>
nan

> <predicted_activity_value>
nan

> <actual_activity_value>
-0.2041199826559248

> <Compound>
Chlorpheniramine

> <standard_units>
uM

> hash
10348786106389164537

$$$$
0
XXILIB    08252103503D 0   0.00000     0.00000

 31 33  0     1  0            999 V2000
    0.2638    0.0057    3.0702 I   0  0  0  0  0  1           0  0  0
    0.2695   -0.1673   -3.0651 I   0  0  0  0  0  1           0  0  0
   -6.6721   -2.4157   -1.5158 O   0  0  0  0  0  2           0  0  0
    1.3662    0.0000    0.0000 O   0  0  0  0  0  2           0  0  0
   -4.8672    0.8638    0.5790 O   0  0  0  0  0  2           0  0  0
    4.2023    2.4015    0.0000 N   0  0  1  0  0  3           0  0  0
   -0.7075    0.0000    1.2099 C   0  0  0  0  0  4           0  0  0
   -0.7064   -0.0709   -1.2087 C   0  0  0  0  0  4           0  0  0
   -5.6438   -3.2529   -1.2333 C   0  0  0  0  0  4           0  0  0
   -6.3152   -1.1666   -1.1000 C   0  0  0  0  0  4           0  0  0
    0.0000    0.0000   -0.0000 C   0  0  0  0  0  4           0  0  0
   -4.6085   -2.5534   -0.6281 C   0  0  0  0  0  4           0  0  0
   -5.0455   -1.1864   -0.5330 C   0  0  0  0  0  4           0  0  0
   -2.8130   -0.0634   -0.0012 C   0  0  0  0  0  4           0  0  0
   -2.1075   -0.0219    1.2093 C   0  0  0  0  0  4           0  0  0
   -2.1074   -0.0947   -1.2111 C   0  0  0  0  0  4           0  0  0
   -5.6199   -4.6196   -1.5083 C   0  0  0  0  0  4           0  0  0
   -3.4505   -3.2734   -0.2694 C   0  0  0  0  0  4           0  0  0
   -4.4609   -5.3087   -1.1440 C   0  0  0  0  0  4           0  0  0
   -3.3923   -4.6487   -0.5357 C   0  0  0  0  0  4           0  0  0
   -4.2943   -0.0826    0.0439 C   0  0  0  0  0  4           0  0  0
    1.9814    1.2885    0.0000 C   0  0  0  0  0  4           0  0  0
    3.4967    1.1161   -0.0000 C   0  0  0  0  0  4           0  0  0
    5.6613    2.2832   -0.0000 C   0  0  0  0  0  4           0  0  0
    3.7189    3.3247   -1.0322 C   0  0  0  0  0  4           0  0  0
   -7.3436   -0.1272   -1.3472 C   0  0  0  0  0  4           0  0  0
   -8.3156    0.0245   -0.1814 C   0  0  0  0  0  4           0  0  0
   -9.3750    1.0939   -0.4337 C   0  0  0  0  0  4           0  0  0
    6.1740    1.5324    1.2245 C   0  0  0  0  0  4           0  0  0
    3.8825    2.7499   -2.4353 C   0  0  0  0  0  4           0  0  0
  -10.3299    1.2244    0.7428 C   0  0  0  0  0  4           0  0  0
  1  7  1  0     0  0
  2  8  1  0     0  0
  3  9  1  0     0  0
  3 10  1  0     0  0
  4 11  1  0     0  0
  4 22  1  0     0  0
  5 21  2  0     0  0
  6 23  1  0     0  0
  6 24  1  0     0  0
  6 25  1  0     0  0
  7 11  1  0     0  0
  7 15  2  0     0  0
  8 11  2  0     0  0
  8 16  1  0     0  0
  9 12  2  0     0  0
  9 17  1  0     0  0
 10 13  2  0     0  0
 10 26  1  0     0  0
 12 13  1  0     0  0
 12 18  1  0     0  0
 13 21  1  0     0  0
 14 15  1  0     0  0
 14 16  2  0     0  0
 14 21  1  0     0  0
 17 19  2  0     0  0
 18 20  2  0     0  0
 19 20  1  0     0  0
 22 23  1  0     0  0
 24 29  1  0     0  0
 25 30  1  0     0  0
 26 27  1  0     0  0
 27 28  1  0     0  0
 28 31  1  0     0  0
M  END
> <standard_type>
pIC50

> <# Confs.>
25

> <canonical_smiles>
IC1=C(OCCN(CC)CC)C(I)=CC(C(C2=C(CCCC)OC3=C2C=CC=C3)=O)=C1

> <standard_relation>
=

> <Publication_ID>
Garg_2008

> <predicted_activity_value>
nan

> <actual_activity_value>
0.15490195998574313

> <Compound>
Amiodarone

> <standard_units>
uM

> hash
3661700593658561652

$$$$
0
XXILIB    08252103503D 0   0.00000     0.00000

 31 33  0     1  0            999 V2000
    0.2638    0.0057    3.0702 I   0  0  0  0  0  1           0  0  0
    0.2695   -0.1673   -3.0651 I   0  0  0  0  0  1           0  0  0
   -6.5180   -1.1411   -2.6882 O   0  0  0  0  0  2           0  0  0
    1.3662    0.0000    0.0000 O   0  0  0  0  0  2           0  0  0
   -4.8498    0.4773    0.9863 O   0  0  0  0  0  2           0  0  0
    4.2023    2.4015    0.0000 N   0  0  1  0  0  3           0  0  0
   -0.7075    0.0000    1.2099 C   0  0  0  0  0  4           0  0  0
   -0.7064   -0.0709   -1.2087 C   0  0  0  0  0  4           0  0  0
   -5.9127   -2.3157   -2.3846 C   0  0  0  0  0  4           0  0  0
   -6.0076   -0.1858   -1.8591 C   0  0  0  0  0  4           0  0  0
    0.0000    0.0000   -0.0000 C   0  0  0  0  0  4           0  0  0
   -5.0033   -2.1332   -1.3516 C   0  0  0  0  0  4           0  0  0
   -5.0655   -0.7401   -0.9994 C   0  0  0  0  0  4           0  0  0
   -2.8130   -0.0634   -0.0012 C   0  0  0  0  0  4           0  0  0
   -2.1075   -0.0219    1.2093 C   0  0  0  0  0  4           0  0  0
   -2.1074   -0.0947   -1.2111 C   0  0  0  0  0  4           0  0  0
   -6.1603   -3.5349   -3.0139 C   0  0  0  0  0  4           0  0  0
   -4.2762   -3.2577   -0.9099 C   0  0  0  0  0  4           0  0  0
   -5.4261   -4.6323   -2.5581 C   0  0  0  0  0  4           0  0  0
   -4.4982   -4.4982   -1.5245 C   0  0  0  0  0  4           0  0  0
   -4.2943   -0.0826    0.0439 C   0  0  0  0  0  4           0  0  0
    1.9814    1.2885    0.0000 C   0  0  0  0  0  4           0  0  0
    3.4967    1.1161   -0.0000 C   0  0  0  0  0  4           0  0  0
    5.6613    2.2832   -0.0000 C   0  0  0  0  0  4           0  0  0
    3.7189    3.3247   -1.0322 C   0  0  0  0  0  4           0  0  0
   -6.5714    1.1689   -2.0737 C   0  0  0  0  0  4           0  0  0
   -5.7804    1.9773   -3.0974 C   0  0  0  0  0  4           0  0  0
   -6.3589    3.3721   -3.3199 C   0  0  0  0  0  4           0  0  0
    6.1740    1.5324    1.2245 C   0  0  0  0  0  4           0  0  0
    3.8825    2.7499   -2.4353 C   0  0  0  0  0  4           0  0  0
   -5.5524    4.1558   -4.3438 C   0  0  0  0  0  4           0  0  0
  1  7  1  0     0  0
  2  8  1  0     0  0
  3  9  1  0     0  0
  3 10  1  0     0  0
  4 11  1  0     0  0
  4 22  1  0     0  0
  5 21  2  0     0  0
  6 23  1  0     0  0
  6 24  1  0     0  0
  6 25  1  0     0  0
  7 11  1  0     0  0
  7 15  2  0     0  0
  8 11  2  0     0  0
  8 16  1  0     0  0
  9 12  2  0     0  0
  9 17  1  0     0  0
 10 13  2  0     0  0
 10 26  1  0     0  0
 12 13  1  0     0  0
 12 18  1  0     0  0
 13 21  1  0     0  0
 14 15  1  0     0  0
 14 16  2  0     0  0
 14 21  1  0     0  0
 17 19  2  0     0  0
 18 20  2  0     0  0
 19 20  1  0     0  0
 22 23  1  0     0  0
 24 29  1  0     0  0
 25 30  1  0     0  0
 26 27  1  0     0  0
 27 28  1  0     0  0
 28 31  1  0     0  0
M  END
> <standard_type>
pIC50

> <# Confs.>
25

> <canonical_smiles>
IC1=C(OCCN(CC)CC)C(I)=CC(C(C2=C(CCCC)OC3=C2C=CC=C3)=O)=C1

> <standard_relation>
=

> <Publication_ID>
Garg_2008

> <predicted_activity_value>
nan

> <actual_activity_value>
0.15490195998574313

> <Compound>
Amiodarone

> <standard_units>
uM

> hash
3661700593658561652

$$$$
0
XXILIB    08252103503D 0   0.00000     0.00000

 31 33  0     1  0            999 V2000
    0.2638    0.0057    3.0702 I   0  0  0  0  0  1           0  0  0
    0.2695   -0.1673   -3.0651 I   0  0  0  0  0  1           0  0  0
   -6.6721   -2.4157   -1.5158 O   0  0  0  0  0  2           0  0  0
    1.3662    0.0000    0.0000 O   0  0  0  0  0  2           0  0  0
   -4.8672    0.8638    0.5790 O   0  0  0  0  0  2           0  0  0
    4.2023    2.4015    0.0000 N   0  0  1  0  0  3           0  0  0
   -0.7075    0.0000    1.2099 C   0  0  0  0  0  4           0  0  0
   -0.7064   -0.0709   -1.2087 C   0  0  0  0  0  4           0  0  0
   -5.6438   -3.2529   -1.2333 C   0  0  0  0  0  4           0  0  0
   -6.3152   -1.1666   -1.1000 C   0  0  0  0  0  4           0  0  0
    0.0000    0.0000   -0.0000 C   0  0  0  0  0  4           0  0  0
   -4.6085   -2.5534   -0.6281 C   0  0  0  0  0  4           0  0  0
   -5.0455   -1.1864   -0.5330 C   0  0  0  0  0  4           0  0  0
   -2.8130   -0.0634   -0.0012 C   0  0  0  0  0  4           0  0  0
   -2.1075   -0.0219    1.2093 C   0  0  0  0  0  4           0  0  0
   -2.1074   -0.0947   -1.2111 C   0  0  0  0  0  4           0  0  0
   -5.6199   -4.6196   -1.5083 C   0  0  0  0  0  4           0  0  0
   -3.4505   -3.2734   -0.2694 C   0  0  0  0  0  4           0  0  0
   -4.4609   -5.3087   -1.1440 C   0  0  0  0  0  4           0  0  0
   -3.3923   -4.6487   -0.5357 C   0  0  0  0  0  4           0  0  0
   -4.2943   -0.0826    0.0439 C   0  0  0  0  0  4           0  0  0
    1.9814    1.2885    0.0000 C   0  0  0  0  0  4           0  0  0
    3.4967    1.1161   -0.0000 C   0  0  0  0  0  4           0  0  0
    5.6613    2.2832   -0.0000 C   0  0  0  0  0  4           0  0  0
    3.7189    3.3247   -1.0322 C   0  0  0  0  0  4           0  0  0
   -7.3436   -0.1272   -1.3472 C   0  0  0  0  0  4           0  0  0
   -7.1844    0.5426   -2.7085 C   0  0  0  0  0  4           0  0  0
   -8.2418    1.6128   -2.9652 C   0  0  0  0  0  4           0  0  0
    6.1740    1.5324    1.2245 C   0  0  0  0  0  4           0  0  0
    3.8825    2.7499   -2.4353 C   0  0  0  0  0  4           0  0  0
   -8.0603    2.2639   -4.3276 C   0  0  0  0  0  4           0  0  0
  1  7  1  0     0  0
  2  8  1  0     0  0
  3  9  1  0     0  0
  3 10  1  0     0  0
  4 11  1  0     0  0
  4 22  1  0     0  0
  5 21  2  0     0  0
  6 23  1  0     0  0
  6 24  1  0     0  0
  6 25  1  0     0  0
  7 11  1  0     0  0
  7 15  2  0     0  0
  8 11  2  0     0  0
  8 16  1  0     0  0
  9 12  2  0     0  0
  9 17  1  0     0  0
 10 13  2  0     0  0
 10 26  1  0     0  0
 12 13  1  0     0  0
 12 18  1  0     0  0
 13 21  1  0     0  0
 14 15  1  0     0  0
 14 16  2  0     0  0
 14 21  1  0     0  0
 17 19  2  0     0  0
 18 20  2  0     0  0
 19 20  1  0     0  0
 22 23  1  0     0  0
 24 29  1  0     0  0
 25 30  1  0     0  0
 26 27  1  0     0  0
 27 28  1  0     0  0
 28 31  1  0     0  0
M  END
> <standard_type>
pIC50

> <# Confs.>
25

> <canonical_smiles>
IC1=C(OCCN(CC)CC)C(I)=CC(C(C2=C(CCCC)OC3=C2C=CC=C3)=O)=C1

> <standard_relation>
=

> <Publication_ID>
Garg_2008

> <predicted_activity_value>
nan

> <actual_activity_value>
0.15490195998574313

> <Compound>
Amiodarone

> <standard_units>
uM

> hash
3661700593658561652

$$$$
0
XXILIB    08252103503D 0   0.00000     0.00000

 31 33  0     1  0            999 V2000
    0.2638    0.0057    3.0702 I   0  0  0  0  0  1           0  0  0
    0.2695   -0.1673   -3.0651 I   0  0  0  0  0  1           0  0  0
   -6.5291    0.7890   -2.7446 O   0  0  0  0  0  2           0  0  0
    1.3662    0.0000    0.0000 O   0  0  0  0  0  2           0  0  0
   -4.8348   -0.6074    1.0147 O   0  0  0  0  0  2           0  0  0
    4.2023    2.4015    0.0000 N   0  0  1  0  0  3           0  0  0
   -0.7075    0.0000    1.2099 C   0  0  0  0  0  4           0  0  0
   -0.7064   -0.0709   -1.2087 C   0  0  0  0  0  4           0  0  0
   -5.9466    1.9890   -2.5021 C   0  0  0  0  0  4           0  0  0
   -6.0154   -0.1080   -1.8547 C   0  0  0  0  0  4           0  0  0
   -0.0000    0.0000    0.0000 C   0  0  0  0  0  4           0  0  0
   -5.0457    1.8808   -1.4514 C   0  0  0  0  0  4           0  0  0
   -5.0825    0.5071   -1.0269 C   0  0  0  0  0  4           0  0  0
   -2.8130   -0.0634   -0.0012 C   0  0  0  0  0  4           0  0  0
   -2.1075   -0.0219    1.2093 C   0  0  0  0  0  4           0  0  0
   -2.1074   -0.0947   -1.2111 C   0  0  0  0  0  4           0  0  0
   -6.2089    3.1668   -3.2007 C   0  0  0  0  0  4           0  0  0
   -4.3497    3.0431   -1.0602 C   0  0  0  0  0  4           0  0  0
   -5.5071    4.3033   -2.7923 C   0  0  0  0  0  4           0  0  0
   -4.5933    4.2452   -1.7394 C   0  0  0  0  0  4           0  0  0
   -4.2943   -0.0826    0.0439 C   0  0  0  0  0  4           0  0  0
    1.9814    1.2885    0.0000 C   0  0  0  0  0  4           0  0  0
    3.4967    1.1161   -0.0000 C   0  0  0  0  0  4           0  0  0
    5.6613    2.2832   -0.0000 C   0  0  0  0  0  4           0  0  0
    3.7189    3.3247   -1.0322 C   0  0  0  0  0  4           0  0  0
   -6.5633   -1.4795   -1.9898 C   0  0  0  0  0  4           0  0  0
   -5.7558   -2.3405   -2.9560 C   0  0  0  0  0  4           0  0  0
   -6.3178   -3.7525   -3.0967 C   0  0  0  0  0  4           0  0  0
    6.1740    1.5324    1.2245 C   0  0  0  0  0  4           0  0  0
    3.8825    2.7499   -2.4353 C   0  0  0  0  0  4           0  0  0
   -5.4950   -4.5888   -4.0645 C   0  0  0  0  0  4           0  0  0
  1  7  1  0     0  0
  2  8  1  0     0  0
  3  9  1  0     0  0
  3 10  1  0     0  0
  4 11  1  0     0  0
  4 22  1  0     0  0
  5 21  2  0     0  0
  6 23  1  0     0  0
  6 24  1  0     0  0
  6 25  1  0     0  0
  7 11  1  0     0  0
  7 15  2  0     0  0
  8 11  2  0     0  0
  8 16  1  0     0  0
  9 12  2  0     0  0
  9 17  1  0     0  0
 10 13  2  0     0  0
 10 26  1  0     0  0
 12 13  1  0     0  0
 12 18  1  0     0  0
 13 21  1  0     0  0
 14 15  1  0     0  0
 14 16  2  0     0  0
 14 21  1  0     0  0
 17 19  2  0     0  0
 18 20  2  0     0  0
 19 20  1  0     0  0
 22 23  1  0     0  0
 24 29  1  0     0  0
 25 30  1  0     0  0
 26 27  1  0     0  0
 27 28  1  0     0  0
 28 31  1  0     0  0
M  END
> <standard_type>
pIC50

> <# Confs.>
25

> <canonical_smiles>
IC1=C(OCCN(CC)CC)C(I)=CC(C(C2=C(CCCC)OC3=C2C=CC=C3)=O)=C1

> <standard_relation>
=

> <Publication_ID>
Garg_2008

> <predicted_activity_value>
nan

> <actual_activity_value>
0.15490195998574313

> <Compound>
Amiodarone

> <standard_units>
uM

> hash
3661700593658561652

$$$$
0
XXILIB    08252103503D 0   0.00000     0.00000

 31 33  0     1  0            999 V2000
    0.2638    0.0057    3.0702 I   0  0  0  0  0  1           0  0  0
    0.2695   -0.1673   -3.0651 I   0  0  0  0  0  1           0  0  0
   -6.5180   -1.1411   -2.6882 O   0  0  0  0  0  2           0  0  0
    1.3662    0.0000    0.0000 O   0  0  0  0  0  2           0  0  0
   -4.8498    0.4773    0.9863 O   0  0  0  0  0  2           0  0  0
    4.2023    2.4015    0.0000 N   0  0  1  0  0  3           0  0  0
   -0.7075    0.0000    1.2099 C   0  0  0  0  0  4           0  0  0
   -0.7064   -0.0709   -1.2087 C   0  0  0  0  0  4           0  0  0
   -5.9127   -2.3157   -2.3846 C   0  0  0  0  0  4           0  0  0
   -6.0076   -0.1858   -1.8591 C   0  0  0  0  0  4           0  0  0
    0.0000    0.0000   -0.0000 C   0  0  0  0  0  4           0  0  0
   -5.0033   -2.1332   -1.3516 C   0  0  0  0  0  4           0  0  0
   -5.0655   -0.7401   -0.9994 C   0  0  0  0  0  4           0  0  0
   -2.8130   -0.0634   -0.0012 C   0  0  0  0  0  4           0  0  0
   -2.1075   -0.0219    1.2093 C   0  0  0  0  0  4           0  0  0
   -2.1074   -0.0947   -1.2111 C   0  0  0  0  0  4           0  0  0
   -6.1603   -3.5349   -3.0139 C   0  0  0  0  0  4           0  0  0
   -4.2762   -3.2577   -0.9099 C   0  0  0  0  0  4           0  0  0
   -5.4261   -4.6323   -2.5581 C   0  0  0  0  0  4           0  0  0
   -4.4982   -4.4982   -1.5245 C   0  0  0  0  0  4           0  0  0
   -4.2943   -0.0826    0.0439 C   0  0  0  0  0  4           0  0  0
    1.9814    1.2885    0.0000 C   0  0  0  0  0  4           0  0  0
    3.4967    1.1161   -0.0000 C   0  0  0  0  0  4           0  0  0
    5.6613    2.2832   -0.0000 C   0  0  0  0  0  4           0  0  0
    3.7189    3.3247   -1.0322 C   0  0  0  0  0  4           0  0  0
   -6.5714    1.1689   -2.0737 C   0  0  0  0  0  4           0  0  0
   -7.8078    1.4311   -1.2198 C   0  0  0  0  0  4           0  0  0
   -8.3898    2.8250   -1.4390 C   0  0  0  0  0  4           0  0  0
    6.1740    1.5324    1.2245 C   0  0  0  0  0  4           0  0  0
    3.8825    2.7499   -2.4353 C   0  0  0  0  0  4           0  0  0
   -9.6202    3.0599   -0.5765 C   0  0  0  0  0  4           0  0  0
  1  7  1  0     0  0
  2  8  1  0     0  0
  3  9  1  0     0  0
  3 10  1  0     0  0
  4 11  1  0     0  0
  4 22  1  0     0  0
  5 21  2  0     0  0
  6 23  1  0     0  0
  6 24  1  0     0  0
  6 25  1  0     0  0
  7 11  1  0     0  0
  7 15  2  0     0  0
  8 11  2  0     0  0
  8 16  1  0     0  0
  9 12  2  0     0  0
  9 17  1  0     0  0
 10 13  2  0     0  0
 10 26  1  0     0  0
 12 13  1  0     0  0
 12 18  1  0     0  0
 13 21  1  0     0  0
 14 15  1  0     0  0
 14 16  2  0     0  0
 14 21  1  0     0  0
 17 19  2  0     0  0
 18 20  2  0     0  0
 19 20  1  0     0  0
 22 23  1  0     0  0
 24 29  1  0     0  0
 25 30  1  0     0  0
 26 27  1  0     0  0
 27 28  1  0     0  0
 28 31  1  0     0  0
M  END
> <standard_type>
pIC50

> <# Confs.>
25

> <canonical_smiles>
IC1=C(OCCN(CC)CC)C(I)=CC(C(C2=C(CCCC)OC3=C2C=CC=C3)=O)=C1

> <standard_relation>
=

> <Publication_ID>
Garg_2008

> <predicted_activity_value>
nan

> <actual_activity_value>
0.15490195998574313

> <Compound>
Amiodarone

> <standard_units>
uM

> hash
3661700593658561652

$$$$
0
XXILIB    08252103503D 0   0.00000     0.00000

 31 33  0     1  0            999 V2000
    0.2638    0.0057    3.0702 I   0  0  0  0  0  1           0  0  0
    0.2695   -0.1673   -3.0651 I   0  0  0  0  0  1           0  0  0
   -6.7253    2.1090   -1.6344 O   0  0  0  0  0  2           0  0  0
    1.3662    0.0000    0.0000 O   0  0  0  0  0  2           0  0  0
   -4.8413   -1.0151    0.6282 O   0  0  0  0  0  2           0  0  0
    4.2023    2.4015    0.0000 N   0  0  1  0  0  3           0  0  0
   -0.7075   -0.0000    1.2099 C   0  0  0  0  0  4           0  0  0
   -0.7064   -0.0709   -1.2087 C   0  0  0  0  0  4           0  0  0
   -5.7150    2.9827   -1.4015 C   0  0  0  0  0  4           0  0  0
   -6.3471    0.8966   -1.1372 C   0  0  0  0  0  4           0  0  0
   -0.0000    0.0000    0.0000 C   0  0  0  0  0  4           0  0  0
   -4.6685    2.3429   -0.7513 C   0  0  0  0  0  4           0  0  0
   -5.0750    0.9739   -0.5806 C   0  0  0  0  0  4           0  0  0
   -2.8130   -0.0634   -0.0012 C   0  0  0  0  0  4           0  0  0
   -2.1075   -0.0219    1.2093 C   0  0  0  0  0  4           0  0  0
   -2.1074   -0.0947   -1.2111 C   0  0  0  0  0  4           0  0  0
   -5.7182    4.3305   -1.7584 C   0  0  0  0  0  4           0  0  0
   -3.5306    3.1093   -0.4255 C   0  0  0  0  0  4           0  0  0
   -4.5797    5.0669   -1.4231 C   0  0  0  0  0  4           0  0  0
   -3.5033    4.4690   -0.7667 C   0  0  0  0  0  4           0  0  0
   -4.2943   -0.0826    0.0439 C   0  0  0  0  0  4           0  0  0
    1.9814    1.2885    0.0000 C   0  0  0  0  0  4           0  0  0
    3.4967    1.1161   -0.0000 C   0  0  0  0  0  4           0  0  0
    5.6613    2.2832   -0.0000 C   0  0  0  0  0  4           0  0  0
    3.7189    3.3247   -1.0322 C   0  0  0  0  0  4           0  0  0
   -7.3586   -0.1738   -1.3117 C   0  0  0  0  0  4           0  0  0
   -8.3259   -0.2633   -0.1356 C   0  0  0  0  0  4           0  0  0
   -9.3679   -1.3643   -0.3130 C   0  0  0  0  0  4           0  0  0
    6.1740    1.5324    1.2245 C   0  0  0  0  0  4           0  0  0
    3.8825    2.7499   -2.4353 C   0  0  0  0  0  4           0  0  0
  -10.3185   -1.4317    0.8723 C   0  0  0  0  0  4           0  0  0
  1  7  1  0     0  0
  2  8  1  0     0  0
  3  9  1  0     0  0
  3 10  1  0     0  0
  4 11  1  0     0  0
  4 22  1  0     0  0
  5 21  2  0     0  0
  6 23  1  0     0  0
  6 24  1  0     0  0
  6 25  1  0     0  0
  7 11  1  0     0  0
  7 15  2  0     0  0
  8 11  2  0     0  0
  8 16  1  0     0  0
  9 12  2  0     0  0
  9 17  1  0     0  0
 10 13  2  0     0  0
 10 26  1  0     0  0
 12 13  1  0     0  0
 12 18  1  0     0  0
 13 21  1  0     0  0
 14 15  1  0     0  0
 14 16  2  0     0  0
 14 21  1  0     0  0
 17 19  2  0     0  0
 18 20  2  0     0  0
 19 20  1  0     0  0
 22 23  1  0     0  0
 24 29  1  0     0  0
 25 30  1  0     0  0
 26 27  1  0     0  0
 27 28  1  0     0  0
 28 31  1  0     0  0
M  END
> <standard_type>
pIC50

> <# Confs.>
25

> <canonical_smiles>
IC1=C(OCCN(CC)CC)C(I)=CC(C(C2=C(CCCC)OC3=C2C=CC=C3)=O)=C1

> <standard_relation>
=

> <Publication_ID>
Garg_2008

> <predicted_activity_value>
nan

> <actual_activity_value>
0.15490195998574313

> <Compound>
Amiodarone

> <standard_units>
uM

> hash
3661700593658561652

$$$$
0
XXILIB    08252103503D 0   0.00000     0.00000

 31 33  0     1  0            999 V2000
    0.2638    0.0057    3.0702 I   0  0  0  0  0  1           0  0  0
    0.2695   -0.1673   -3.0651 I   0  0  0  0  0  1           0  0  0
   -6.5291    0.7890   -2.7446 O   0  0  0  0  0  2           0  0  0
    1.3662    0.0000    0.0000 O   0  0  0  0  0  2           0  0  0
   -4.8348   -0.6074    1.0147 O   0  0  0  0  0  2           0  0  0
    4.2023    2.4015    0.0000 N   0  0  1  0  0  3           0  0  0
   -0.7075    0.0000    1.2099 C   0  0  0  0  0  4           0  0  0
   -0.7064   -0.0709   -1.2087 C   0  0  0  0  0  4           0  0  0
   -5.9466    1.9890   -2.5021 C   0  0  0  0  0  4           0  0  0
   -6.0154   -0.1080   -1.8547 C   0  0  0  0  0  4           0  0  0
   -0.0000    0.0000    0.0000 C   0  0  0  0  0  4           0  0  0
   -5.0457    1.8808   -1.4514 C   0  0  0  0  0  4           0  0  0
   -5.0825    0.5071   -1.0269 C   0  0  0  0  0  4           0  0  0
   -2.8130   -0.0634   -0.0012 C   0  0  0  0  0  4           0  0  0
   -2.1075   -0.0219    1.2093 C   0  0  0  0  0  4           0  0  0
   -2.1074   -0.0947   -1.2111 C   0  0  0  0  0  4           0  0  0
   -6.2089    3.1668   -3.2007 C   0  0  0  0  0  4           0  0  0
   -4.3497    3.0431   -1.0602 C   0  0  0  0  0  4           0  0  0
   -5.5071    4.3033   -2.7923 C   0  0  0  0  0  4           0  0  0
   -4.5933    4.2452   -1.7394 C   0  0  0  0  0  4           0  0  0
   -4.2943   -0.0826    0.0439 C   0  0  0  0  0  4           0  0  0
    1.9814    1.2885    0.0000 C   0  0  0  0  0  4           0  0  0
    3.4967    1.1161   -0.0000 C   0  0  0  0  0  4           0  0  0
    5.6613    2.2832   -0.0000 C   0  0  0  0  0  4           0  0  0
    3.7189    3.3247   -1.0322 C   0  0  0  0  0  4           0  0  0
   -6.5633   -1.4795   -1.9898 C   0  0  0  0  0  4           0  0  0
   -7.8038   -1.7023   -1.1305 C   0  0  0  0  0  4           0  0  0
   -8.3694   -3.1132   -1.2680 C   0  0  0  0  0  4           0  0  0
    6.1740    1.5324    1.2245 C   0  0  0  0  0  4           0  0  0
    3.8825    2.7499   -2.4353 C   0  0  0  0  0  4           0  0  0
   -9.6042   -3.3082   -0.4018 C   0  0  0  0  0  4           0  0  0
  1  7  1  0     0  0
  2  8  1  0     0  0
  3  9  1  0     0  0
  3 10  1  0     0  0
  4 11  1  0     0  0
  4 22  1  0     0  0
  5 21  2  0     0  0
  6 23  1  0     0  0
  6 24  1  0     0  0
  6 25  1  0     0  0
  7 11  1  0     0  0
  7 15  2  0     0  0
  8 11  2  0     0  0
  8 16  1  0     0  0
  9 12  2  0     0  0
  9 17  1  0     0  0
 10 13  2  0     0  0
 10 26  1  0     0  0
 12 13  1  0     0  0
 12 18  1  0     0  0
 13 21  1  0     0  0
 14 15  1  0     0  0
 14 16  2  0     0  0
 14 21  1  0     0  0
 17 19  2  0     0  0
 18 20  2  0     0  0
 19 20  1  0     0  0
 22 23  1  0     0  0
 24 29  1  0     0  0
 25 30  1  0     0  0
 26 27  1  0     0  0
 27 28  1  0     0  0
 28 31  1  0     0  0
M  END
> <standard_type>
pIC50

> <# Confs.>
25

> <canonical_smiles>
IC1=C(OCCN(CC)CC)C(I)=CC(C(C2=C(CCCC)OC3=C2C=CC=C3)=O)=C1

> <standard_relation>
=

> <Publication_ID>
Garg_2008

> <predicted_activity_value>
nan

> <actual_activity_value>
0.15490195998574313

> <Compound>
Amiodarone

> <standard_units>
uM

> hash
3661700593658561652

$$$$
0
XXILIB    08252103503D 0   0.00000     0.00000

 31 33  0     1  0            999 V2000
    0.2638    0.0057    3.0702 I   0  0  0  0  0  1           0  0  0
    0.2695   -0.1673   -3.0651 I   0  0  0  0  0  1           0  0  0
   -6.7253    2.1090   -1.6344 O   0  0  0  0  0  2           0  0  0
    1.3662    0.0000    0.0000 O   0  0  0  0  0  2           0  0  0
   -4.8413   -1.0151    0.6282 O   0  0  0  0  0  2           0  0  0
    4.2023    2.4015    0.0000 N   0  0  1  0  0  3           0  0  0
   -0.7075   -0.0000    1.2099 C   0  0  0  0  0  4           0  0  0
   -0.7064   -0.0709   -1.2087 C   0  0  0  0  0  4           0  0  0
   -5.7150    2.9827   -1.4015 C   0  0  0  0  0  4           0  0  0
   -6.3471    0.8966   -1.1372 C   0  0  0  0  0  4           0  0  0
   -0.0000    0.0000    0.0000 C   0  0  0  0  0  4           0  0  0
   -4.6685    2.3429   -0.7513 C   0  0  0  0  0  4           0  0  0
   -5.0750    0.9739   -0.5806 C   0  0  0  0  0  4           0  0  0
   -2.8130   -0.0634   -0.0012 C   0  0  0  0  0  4           0  0  0
   -2.1075   -0.0219    1.2093 C   0  0  0  0  0  4           0  0  0
   -2.1074   -0.0947   -1.2111 C   0  0  0  0  0  4           0  0  0
   -5.7182    4.3305   -1.7584 C   0  0  0  0  0  4           0  0  0
   -3.5306    3.1093   -0.4255 C   0  0  0  0  0  4           0  0  0
   -4.5797    5.0669   -1.4231 C   0  0  0  0  0  4           0  0  0
   -3.5033    4.4690   -0.7667 C   0  0  0  0  0  4           0  0  0
   -4.2943   -0.0826    0.0439 C   0  0  0  0  0  4           0  0  0
    1.9814    1.2885    0.0000 C   0  0  0  0  0  4           0  0  0
    3.4967    1.1161   -0.0000 C   0  0  0  0  0  4           0  0  0
    5.6613    2.2832   -0.0000 C   0  0  0  0  0  4           0  0  0
    3.7189    3.3247   -1.0322 C   0  0  0  0  0  4           0  0  0
   -7.3586   -0.1738   -1.3117 C   0  0  0  0  0  4           0  0  0
   -7.1906   -0.9302   -2.6256 C   0  0  0  0  0  4           0  0  0
   -8.2306   -2.0325   -2.8074 C   0  0  0  0  0  4           0  0  0
    6.1740    1.5324    1.2245 C   0  0  0  0  0  4           0  0  0
    3.8825    2.7499   -2.4353 C   0  0  0  0  0  4           0  0  0
   -8.0405   -2.7699   -4.1238 C   0  0  0  0  0  4           0  0  0
  1  7  1  0     0  0
  2  8  1  0     0  0
  3  9  1  0     0  0
  3 10  1  0     0  0
  4 11  1  0     0  0
  4 22  1  0     0  0
  5 21  2  0     0  0
  6 23  1  0     0  0
  6 24  1  0     0  0
  6 25  1  0     0  0
  7 11  1  0     0  0
  7 15  2  0     0  0
  8 11  2  0     0  0
  8 16  1  0     0  0
  9 12  2  0     0  0
  9 17  1  0     0  0
 10 13  2  0     0  0
 10 26  1  0     0  0
 12 13  1  0     0  0
 12 18  1  0     0  0
 13 21  1  0     0  0
 14 15  1  0     0  0
 14 16  2  0     0  0
 14 21  1  0     0  0
 17 19  2  0     0  0
 18 20  2  0     0  0
 19 20  1  0     0  0
 22 23  1  0     0  0
 24 29  1  0     0  0
 25 30  1  0     0  0
 26 27  1  0     0  0
 27 28  1  0     0  0
 28 31  1  0     0  0
M  END
> <standard_type>
pIC50

> <# Confs.>
25

> <canonical_smiles>
IC1=C(OCCN(CC)CC)C(I)=CC(C(C2=C(CCCC)OC3=C2C=CC=C3)=O)=C1

> <standard_relation>
=

> <Publication_ID>
Garg_2008

> <predicted_activity_value>
nan

> <actual_activity_value>
0.15490195998574313

> <Compound>
Amiodarone

> <standard_units>
uM

> hash
3661700593658561652

$$$$
0
XXILIB    08252103503D 0   0.00000     0.00000

 31 33  0     1  0            999 V2000
    0.2638    0.0057    3.0702 I   0  0  0  0  0  1           0  0  0
    0.2695   -0.1673   -3.0651 I   0  0  0  0  0  1           0  0  0
   -5.6530   -3.2399   -1.2656 O   0  0  0  0  0  2           0  0  0
    1.3662    0.0000    0.0000 O   0  0  0  0  0  2           0  0  0
   -4.8672    0.8638    0.5790 O   0  0  0  0  0  2           0  0  0
    4.2023    2.4015    0.0000 N   0  0  1  0  0  3           0  0  0
   -0.7075    0.0000    1.2099 C   0  0  0  0  0  4           0  0  0
   -0.7064   -0.0709   -1.2087 C   0  0  0  0  0  4           0  0  0
   -6.6734   -2.3910   -1.5419 C   0  0  0  0  0  4           0  0  0
   -4.6700   -2.5201   -0.6525 C   0  0  0  0  0  4           0  0  0
    0.0000   -0.0000    0.0000 C   0  0  0  0  0  4           0  0  0
   -6.3599   -1.1088   -1.1116 C   0  0  0  0  0  4           0  0  0
   -5.0455   -1.1864   -0.5330 C   0  0  0  0  0  4           0  0  0
   -2.8130   -0.0634   -0.0012 C   0  0  0  0  0  4           0  0  0
   -2.1075   -0.0219    1.2093 C   0  0  0  0  0  4           0  0  0
   -2.1074   -0.0947   -1.2111 C   0  0  0  0  0  4           0  0  0
   -7.8685   -2.7454   -2.1664 C   0  0  0  0  0  4           0  0  0
   -7.3177   -0.0944   -1.3165 C   0  0  0  0  0  4           0  0  0
   -8.8002   -1.7221   -2.3561 C   0  0  0  0  0  4           0  0  0
   -8.5321   -0.4181   -1.9380 C   0  0  0  0  0  4           0  0  0
   -4.2943   -0.0826    0.0439 C   0  0  0  0  0  4           0  0  0
    1.9814    1.2885    0.0000 C   0  0  0  0  0  4           0  0  0
    3.4967    1.1161   -0.0000 C   0  0  0  0  0  4           0  0  0
    5.6613    2.2832   -0.0000 C   0  0  0  0  0  4           0  0  0
    3.7189    3.3247   -1.0322 C   0  0  0  0  0  4           0  0  0
   -3.4767   -3.3173   -0.2787 C   0  0  0  0  0  4           0  0  0
   -3.5835   -3.9101    1.1228 C   0  0  0  0  0  4           0  0  0
   -2.3564   -4.7310    1.5098 C   0  0  0  0  0  4           0  0  0
    6.1740    1.5324    1.2245 C   0  0  0  0  0  4           0  0  0
    3.8825    2.7499   -2.4353 C   0  0  0  0  0  4           0  0  0
   -2.4889   -5.3099    2.9099 C   0  0  0  0  0  4           0  0  0
  1  7  1  0     0  0
  2  8  1  0     0  0
  3  9  1  0     0  0
  3 10  1  0     0  0
  4 11  1  0     0  0
  4 22  1  0     0  0
  5 21  2  0     0  0
  6 23  1  0     0  0
  6 24  1  0     0  0
  6 25  1  0     0  0
  7 11  1  0     0  0
  7 15  2  0     0  0
  8 11  2  0     0  0
  8 16  1  0     0  0
  9 12  2  0     0  0
  9 17  1  0     0  0
 10 13  2  0     0  0
 10 26  1  0     0  0
 12 13  1  0     0  0
 12 18  1  0     0  0
 13 21  1  0     0  0
 14 15  1  0     0  0
 14 16  2  0     0  0
 14 21  1  0     0  0
 17 19  2  0     0  0
 18 20  2  0     0  0
 19 20  1  0     0  0
 22 23  1  0     0  0
 24 29  1  0     0  0
 25 30  1  0     0  0
 26 27  1  0     0  0
 27 28  1  0     0  0
 28 31  1  0     0  0
M  END
> <standard_type>
pIC50

> <# Confs.>
25

> <canonical_smiles>
IC1=C(OCCN(CC)CC)C(I)=CC(C(C2=C(CCCC)OC3=C2C=CC=C3)=O)=C1

> <standard_relation>
=

> <Publication_ID>
Garg_2008

> <predicted_activity_value>
nan

> <actual_activity_value>
0.15490195998574313

> <Compound>
Amiodarone

> <standard_units>
uM

> hash
3661700593658561652

$$$$
0
XXILIB    08252103503D 0   0.00000     0.00000

 31 33  0     1  0            999 V2000
    0.2638    0.0057    3.0702 I   0  0  0  0  0  1           0  0  0
    0.2695   -0.1673   -3.0651 I   0  0  0  0  0  1           0  0  0
   -6.3320   -1.0096    2.9624 O   0  0  0  0  0  2           0  0  0
    1.3662    0.0000    0.0000 O   0  0  0  0  0  2           0  0  0
   -4.9063    0.4273   -0.8919 O   0  0  0  0  0  2           0  0  0
    4.2023    2.4015    0.0000 N   0  0  1  0  0  3           0  0  0
   -0.7075    0.0000    1.2099 C   0  0  0  0  0  4           0  0  0
   -0.7064   -0.0709   -1.2087 C   0  0  0  0  0  4           0  0  0
   -5.7344   -2.1943    2.6840 C   0  0  0  0  0  4           0  0  0
   -5.8969   -0.1002    2.0436 C   0  0  0  0  0  4           0  0  0
   -0.0000    0.0000    0.0000 C   0  0  0  0  0  4           0  0  0
   -4.9022   -2.0636    1.5805 C   0  0  0  0  0  4           0  0  0
   -5.0004   -0.6916    1.1601 C   0  0  0  0  0  4           0  0  0
   -2.8130   -0.0634   -0.0012 C   0  0  0  0  0  4           0  0  0
   -2.1075   -0.0219    1.2093 C   0  0  0  0  0  4           0  0  0
   -2.1074   -0.0947   -1.2111 C   0  0  0  0  0  4           0  0  0
   -5.9232   -3.3779    3.3962 C   0  0  0  0  0  4           0  0  0
   -4.2015   -3.2077    1.1468 C   0  0  0  0  0  4           0  0  0
   -5.2183   -4.4962    2.9451 C   0  0  0  0  0  4           0  0  0
   -4.3720   -4.4153    1.8386 C   0  0  0  0  0  4           0  0  0
   -4.2943   -0.0826    0.0439 C   0  0  0  0  0  4           0  0  0
    1.9814    1.2885    0.0000 C   0  0  0  0  0  4           0  0  0
    3.4967    1.1161   -0.0000 C   0  0  0  0  0  4           0  0  0
    5.6613    2.2832   -0.0000 C   0  0  0  0  0  4           0  0  0
    3.7189    3.3247   -1.0322 C   0  0  0  0  0  4           0  0  0
   -6.4708    1.2566    2.2129 C   0  0  0  0  0  4           0  0  0
   -5.6287    2.1391    3.1288 C   0  0  0  0  0  4           0  0  0
   -6.2175    3.5362    3.3045 C   0  0  0  0  0  4           0  0  0
    6.1740    1.5324    1.2245 C   0  0  0  0  0  4           0  0  0
    3.8825    2.7499   -2.4353 C   0  0  0  0  0  4           0  0  0
   -5.3593    4.3942    4.2212 C   0  0  0  0  0  4           0  0  0
  1  7  1  0     0  0
  2  8  1  0     0  0
  3  9  1  0     0  0
  3 10  1  0     0  0
  4 11  1  0     0  0
  4 22  1  0     0  0
  5 21  2  0     0  0
  6 23  1  0     0  0
  6 24  1  0     0  0
  6 25  1  0     0  0
  7 11  1  0     0  0
  7 15  2  0     0  0
  8 11  2  0     0  0
  8 16  1  0     0  0
  9 12  2  0     0  0
  9 17  1  0     0  0
 10 13  2  0     0  0
 10 26  1  0     0  0
 12 13  1  0     0  0
 12 18  1  0     0  0
 13 21  1  0     0  0
 14 15  1  0     0  0
 14 16  2  0     0  0
 14 21  1  0     0  0
 17 19  2  0     0  0
 18 20  2  0     0  0
 19 20  1  0     0  0
 22 23  1  0     0  0
 24 29  1  0     0  0
 25 30  1  0     0  0
 26 27  1  0     0  0
 27 28  1  0     0  0
 28 31  1  0     0  0
M  END
> <standard_type>
pIC50

> <# Confs.>
25

> <canonical_smiles>
IC1=C(OCCN(CC)CC)C(I)=CC(C(C2=C(CCCC)OC3=C2C=CC=C3)=O)=C1

> <standard_relation>
=

> <Publication_ID>
Garg_2008

> <predicted_activity_value>
nan

> <actual_activity_value>
0.15490195998574313

> <Compound>
Amiodarone

> <standard_units>
uM

> hash
3661700593658561652

$$$$
0
XXILIB    08252103503D 0   0.00000     0.00000

 31 33  0     1  0            999 V2000
    0.2638    0.0057    3.0702 I   0  0  0  0  0  1           0  0  0
    0.2695   -0.1673   -3.0651 I   0  0  0  0  0  1           0  0  0
   -6.6721   -2.4157   -1.5158 O   0  0  0  0  0  2           0  0  0
    1.3662    0.0000    0.0000 O   0  0  0  0  0  2           0  0  0
   -4.8672    0.8638    0.5790 O   0  0  0  0  0  2           0  0  0
    4.2023    2.4015    0.0000 N   0  0  1  0  0  3           0  0  0
   -0.7075    0.0000    1.2099 C   0  0  0  0  0  4           0  0  0
   -0.7064   -0.0709   -1.2087 C   0  0  0  0  0  4           0  0  0
   -5.6438   -3.2529   -1.2333 C   0  0  0  0  0  4           0  0  0
   -6.3152   -1.1666   -1.1000 C   0  0  0  0  0  4           0  0  0
    0.0000    0.0000   -0.0000 C   0  0  0  0  0  4           0  0  0
   -4.6085   -2.5534   -0.6281 C   0  0  0  0  0  4           0  0  0
   -5.0455   -1.1864   -0.5330 C   0  0  0  0  0  4           0  0  0
   -2.8130   -0.0634   -0.0012 C   0  0  0  0  0  4           0  0  0
   -2.1075   -0.0219    1.2093 C   0  0  0  0  0  4           0  0  0
   -2.1074   -0.0947   -1.2111 C   0  0  0  0  0  4           0  0  0
   -5.6199   -4.6196   -1.5083 C   0  0  0  0  0  4           0  0  0
   -3.4505   -3.2734   -0.2694 C   0  0  0  0  0  4           0  0  0
   -4.4609   -5.3087   -1.1440 C   0  0  0  0  0  4           0  0  0
   -3.3923   -4.6487   -0.5357 C   0  0  0  0  0  4           0  0  0
   -4.2943   -0.0826    0.0439 C   0  0  0  0  0  4           0  0  0
    1.9814    1.2885    0.0000 C   0  0  0  0  0  4           0  0  0
    3.4967    1.1161    0.0000 C   0  0  0  0  0  4           0  0  0
    3.9047    3.2475   -1.1570 C   0  0  0  0  0  4           0  0  0
    4.0766    3.1284    1.2678 C   0  0  0  0  0  4           0  0  0
   -7.3436   -0.1272   -1.3472 C   0  0  0  0  0  4           0  0  0
   -8.3156    0.0245   -0.1814 C   0  0  0  0  0  4           0  0  0
   -9.3750    1.0939   -0.4337 C   0  0  0  0  0  4           0  0  0
    4.2809    2.5715   -2.4713 C   0  0  0  0  0  4           0  0  0
    4.6408    2.3336    2.4408 C   0  0  0  0  0  4           0  0  0
  -10.3299    1.2244    0.7428 C   0  0  0  0  0  4           0  0  0
  1  7  1  0     0  0
  2  8  1  0     0  0
  3  9  1  0     0  0
  3 10  1  0     0  0
  4 11  1  0     0  0
  4 22  1  0     0  0
  5 21  2  0     0  0
  6 23  1  0     0  0
  6 24  1  0     0  0
  6 25  1  0     0  0
  7 11  1  0     0  0
  7 15  2  0     0  0
  8 11  2  0     0  0
  8 16  1  0     0  0
  9 12  2  0     0  0
  9 17  1  0     0  0
 10 13  2  0     0  0
 10 26  1  0     0  0
 12 13  1  0     0  0
 12 18  1  0     0  0
 13 21  1  0     0  0
 14 15  1  0     0  0
 14 16  2  0     0  0
 14 21  1  0     0  0
 17 19  2  0     0  0
 18 20  2  0     0  0
 19 20  1  0     0  0
 22 23  1  0     0  0
 24 29  1  0     0  0
 25 30  1  0     0  0
 26 27  1  0     0  0
 27 28  1  0     0  0
 28 31  1  0     0  0
M  END
> <standard_type>
pIC50

> <# Confs.>
25

> <canonical_smiles>
IC1=C(OCCN(CC)CC)C(I)=CC(C(C2=C(CCCC)OC3=C2C=CC=C3)=O)=C1

> <standard_relation>
=

> <Publication_ID>
Garg_2008

> <predicted_activity_value>
nan

> <actual_activity_value>
0.15490195998574313

> <Compound>
Amiodarone

> <standard_units>
uM

> hash
3661700593658561652

$$$$
0
XXILIB    08252103503D 0   0.00000     0.00000

 31 33  0     1  0            999 V2000
    0.2638    0.0057    3.0702 I   0  0  0  0  0  1           0  0  0
    0.2695   -0.1673   -3.0651 I   0  0  0  0  0  1           0  0  0
   -6.6721   -2.4157   -1.5158 O   0  0  0  0  0  2           0  0  0
    1.3662    0.0000    0.0000 O   0  0  0  0  0  2           0  0  0
   -4.8672    0.8638    0.5790 O   0  0  0  0  0  2           0  0  0
    4.2023    2.4015    0.0000 N   0  0  1  0  0  3           0  0  0
   -0.7075    0.0000    1.2099 C   0  0  0  0  0  4           0  0  0
   -0.7064   -0.0709   -1.2087 C   0  0  0  0  0  4           0  0  0
   -5.6438   -3.2529   -1.2333 C   0  0  0  0  0  4           0  0  0
   -6.3152   -1.1666   -1.1000 C   0  0  0  0  0  4           0  0  0
    0.0000    0.0000   -0.0000 C   0  0  0  0  0  4           0  0  0
   -4.6085   -2.5534   -0.6281 C   0  0  0  0  0  4           0  0  0
   -5.0455   -1.1864   -0.5330 C   0  0  0  0  0  4           0  0  0
   -2.8130   -0.0634   -0.0012 C   0  0  0  0  0  4           0  0  0
   -2.1075   -0.0219    1.2093 C   0  0  0  0  0  4           0  0  0
   -2.1074   -0.0947   -1.2111 C   0  0  0  0  0  4           0  0  0
   -5.6199   -4.6196   -1.5083 C   0  0  0  0  0  4           0  0  0
   -3.4505   -3.2734   -0.2694 C   0  0  0  0  0  4           0  0  0
   -4.4609   -5.3087   -1.1440 C   0  0  0  0  0  4           0  0  0
   -3.3923   -4.6487   -0.5357 C   0  0  0  0  0  4           0  0  0
   -4.2943   -0.0826    0.0439 C   0  0  0  0  0  4           0  0  0
    1.9814    1.2885    0.0000 C   0  0  0  0  0  4           0  0  0
    3.4967    1.1161   -0.0000 C   0  0  0  0  0  4           0  0  0
    5.6613    2.2832   -0.0000 C   0  0  0  0  0  4           0  0  0
    3.7189    3.3247   -1.0322 C   0  0  0  0  0  4           0  0  0
   -7.3436   -0.1272   -1.3472 C   0  0  0  0  0  4           0  0  0
   -7.1844    0.5426   -2.7085 C   0  0  0  0  0  4           0  0  0
   -5.8340    1.2356   -2.8692 C   0  0  0  0  0  4           0  0  0
    6.1740    1.5324    1.2245 C   0  0  0  0  0  4           0  0  0
    3.8825    2.7499   -2.4353 C   0  0  0  0  0  4           0  0  0
   -5.7017    1.8943   -4.2336 C   0  0  0  0  0  4           0  0  0
  1  7  1  0     0  0
  2  8  1  0     0  0
  3  9  1  0     0  0
  3 10  1  0     0  0
  4 11  1  0     0  0
  4 22  1  0     0  0
  5 21  2  0     0  0
  6 23  1  0     0  0
  6 24  1  0     0  0
  6 25  1  0     0  0
  7 11  1  0     0  0
  7 15  2  0     0  0
  8 11  2  0     0  0
  8 16  1  0     0  0
  9 12  2  0     0  0
  9 17  1  0     0  0
 10 13  2  0     0  0
 10 26  1  0     0  0
 12 13  1  0     0  0
 12 18  1  0     0  0
 13 21  1  0     0  0
 14 15  1  0     0  0
 14 16  2  0     0  0
 14 21  1  0     0  0
 17 19  2  0     0  0
 18 20  2  0     0  0
 19 20  1  0     0  0
 22 23  1  0     0  0
 24 29  1  0     0  0
 25 30  1  0     0  0
 26 27  1  0     0  0
 27 28  1  0     0  0
 28 31  1  0     0  0
M  END
> <standard_type>
pIC50

> <# Confs.>
25

> <canonical_smiles>
IC1=C(OCCN(CC)CC)C(I)=CC(C(C2=C(CCCC)OC3=C2C=CC=C3)=O)=C1

> <standard_relation>
=

> <Publication_ID>
Garg_2008

> <predicted_activity_value>
nan

> <actual_activity_value>
0.15490195998574313

> <Compound>
Amiodarone

> <standard_units>
uM

> hash
3661700593658561652

$$$$
0
XXILIB    08252103503D 0   0.00000     0.00000

 31 33  0     1  0            999 V2000
    0.2638    0.0057    3.0702 I   0  0  0  0  0  1           0  0  0
    0.2695   -0.1673   -3.0651 I   0  0  0  0  0  1           0  0  0
   -6.5180   -1.1411   -2.6882 O   0  0  0  0  0  2           0  0  0
    1.3662    0.0000    0.0000 O   0  0  0  0  0  2           0  0  0
   -4.8498    0.4773    0.9863 O   0  0  0  0  0  2           0  0  0
    4.2023    2.4015    0.0000 N   0  0  1  0  0  3           0  0  0
   -0.7075    0.0000    1.2099 C   0  0  0  0  0  4           0  0  0
   -0.7064   -0.0709   -1.2087 C   0  0  0  0  0  4           0  0  0
   -5.9127   -2.3157   -2.3846 C   0  0  0  0  0  4           0  0  0
   -6.0076   -0.1858   -1.8591 C   0  0  0  0  0  4           0  0  0
    0.0000    0.0000   -0.0000 C   0  0  0  0  0  4           0  0  0
   -5.0033   -2.1332   -1.3516 C   0  0  0  0  0  4           0  0  0
   -5.0655   -0.7401   -0.9994 C   0  0  0  0  0  4           0  0  0
   -2.8130   -0.0634   -0.0012 C   0  0  0  0  0  4           0  0  0
   -2.1075   -0.0219    1.2093 C   0  0  0  0  0  4           0  0  0
   -2.1074   -0.0947   -1.2111 C   0  0  0  0  0  4           0  0  0
   -6.1603   -3.5349   -3.0139 C   0  0  0  0  0  4           0  0  0
   -4.2762   -3.2577   -0.9099 C   0  0  0  0  0  4           0  0  0
   -5.4261   -4.6323   -2.5581 C   0  0  0  0  0  4           0  0  0
   -4.4982   -4.4982   -1.5245 C   0  0  0  0  0  4           0  0  0
   -4.2943   -0.0826    0.0439 C   0  0  0  0  0  4           0  0  0
    1.9814    1.2885    0.0000 C   0  0  0  0  0  4           0  0  0
    3.4967    1.1161   -0.0000 C   0  0  0  0  0  4           0  0  0
    5.6613    2.2832   -0.0000 C   0  0  0  0  0  4           0  0  0
    3.7189    3.3247   -1.0322 C   0  0  0  0  0  4           0  0  0
   -6.5714    1.1689   -2.0737 C   0  0  0  0  0  4           0  0  0
   -5.7804    1.9773   -3.0974 C   0  0  0  0  0  4           0  0  0
   -5.7418    1.3118   -4.4703 C   0  0  0  0  0  4           0  0  0
    6.1740    1.5324    1.2245 C   0  0  0  0  0  4           0  0  0
    3.8825    2.7499   -2.4353 C   0  0  0  0  0  4           0  0  0
   -4.9479    2.1376   -5.4707 C   0  0  0  0  0  4           0  0  0
  1  7  1  0     0  0
  2  8  1  0     0  0
  3  9  1  0     0  0
  3 10  1  0     0  0
  4 11  1  0     0  0
  4 22  1  0     0  0
  5 21  2  0     0  0
  6 23  1  0     0  0
  6 24  1  0     0  0
  6 25  1  0     0  0
  7 11  1  0     0  0
  7 15  2  0     0  0
  8 11  2  0     0  0
  8 16  1  0     0  0
  9 12  2  0     0  0
  9 17  1  0     0  0
 10 13  2  0     0  0
 10 26  1  0     0  0
 12 13  1  0     0  0
 12 18  1  0     0  0
 13 21  1  0     0  0
 14 15  1  0     0  0
 14 16  2  0     0  0
 14 21  1  0     0  0
 17 19  2  0     0  0
 18 20  2  0     0  0
 19 20  1  0     0  0
 22 23  1  0     0  0
 24 29  1  0     0  0
 25 30  1  0     0  0
 26 27  1  0     0  0
 27 28  1  0     0  0
 28 31  1  0     0  0
M  END
> <standard_type>
pIC50

> <# Confs.>
25

> <canonical_smiles>
IC1=C(OCCN(CC)CC)C(I)=CC(C(C2=C(CCCC)OC3=C2C=CC=C3)=O)=C1

> <standard_relation>
=

> <Publication_ID>
Garg_2008

> <predicted_activity_value>
nan

> <actual_activity_value>
0.15490195998574313

> <Compound>
Amiodarone

> <standard_units>
uM

> hash
3661700593658561652

$$$$
0
XXILIB    08252103503D 0   0.00000     0.00000

 31 33  0     1  0            999 V2000
    0.2638    0.0057    3.0702 I   0  0  0  0  0  1           0  0  0
    0.2695   -0.1673   -3.0651 I   0  0  0  0  0  1           0  0  0
   -6.5180   -1.1411   -2.6882 O   0  0  0  0  0  2           0  0  0
    1.3662    0.0000    0.0000 O   0  0  0  0  0  2           0  0  0
   -4.8498    0.4773    0.9863 O   0  0  0  0  0  2           0  0  0
    4.2023    2.4015    0.0000 N   0  0  1  0  0  3           0  0  0
   -0.7075    0.0000    1.2099 C   0  0  0  0  0  4           0  0  0
   -0.7064   -0.0709   -1.2087 C   0  0  0  0  0  4           0  0  0
   -5.9127   -2.3157   -2.3846 C   0  0  0  0  0  4           0  0  0
   -6.0076   -0.1858   -1.8591 C   0  0  0  0  0  4           0  0  0
    0.0000    0.0000   -0.0000 C   0  0  0  0  0  4           0  0  0
   -5.0033   -2.1332   -1.3516 C   0  0  0  0  0  4           0  0  0
   -5.0655   -0.7401   -0.9994 C   0  0  0  0  0  4           0  0  0
   -2.8130   -0.0634   -0.0012 C   0  0  0  0  0  4           0  0  0
   -2.1075   -0.0219    1.2093 C   0  0  0  0  0  4           0  0  0
   -2.1074   -0.0947   -1.2111 C   0  0  0  0  0  4           0  0  0
   -6.1603   -3.5349   -3.0139 C   0  0  0  0  0  4           0  0  0
   -4.2762   -3.2577   -0.9099 C   0  0  0  0  0  4           0  0  0
   -5.4261   -4.6323   -2.5581 C   0  0  0  0  0  4           0  0  0
   -4.4982   -4.4982   -1.5245 C   0  0  0  0  0  4           0  0  0
   -4.2943   -0.0826    0.0439 C   0  0  0  0  0  4           0  0  0
    1.9814    1.2885    0.0000 C   0  0  0  0  0  4           0  0  0
    3.4967    1.1161    0.0000 C   0  0  0  0  0  4           0  0  0
    3.9047    3.2475   -1.1570 C   0  0  0  0  0  4           0  0  0
    4.0766    3.1284    1.2678 C   0  0  0  0  0  4           0  0  0
   -6.5714    1.1689   -2.0737 C   0  0  0  0  0  4           0  0  0
   -5.7804    1.9773   -3.0974 C   0  0  0  0  0  4           0  0  0
   -6.3589    3.3721   -3.3199 C   0  0  0  0  0  4           0  0  0
    4.2809    2.5715   -2.4713 C   0  0  0  0  0  4           0  0  0
    4.6408    2.3336    2.4408 C   0  0  0  0  0  4           0  0  0
   -5.5524    4.1558   -4.3438 C   0  0  0  0  0  4           0  0  0
  1  7  1  0     0  0
  2  8  1  0     0  0
  3  9  1  0     0  0
  3 10  1  0     0  0
  4 11  1  0     0  0
  4 22  1  0     0  0
  5 21  2  0     0  0
  6 23  1  0     0  0
  6 24  1  0     0  0
  6 25  1  0     0  0
  7 11  1  0     0  0
  7 15  2  0     0  0
  8 11  2  0     0  0
  8 16  1  0     0  0
  9 12  2  0     0  0
  9 17  1  0     0  0
 10 13  2  0     0  0
 10 26  1  0     0  0
 12 13  1  0     0  0
 12 18  1  0     0  0
 13 21  1  0     0  0
 14 15  1  0     0  0
 14 16  2  0     0  0
 14 21  1  0     0  0
 17 19  2  0     0  0
 18 20  2  0     0  0
 19 20  1  0     0  0
 22 23  1  0     0  0
 24 29  1  0     0  0
 25 30  1  0     0  0
 26 27  1  0     0  0
 27 28  1  0     0  0
 28 31  1  0     0  0
M  END
> <standard_type>
pIC50

> <# Confs.>
25

> <canonical_smiles>
IC1=C(OCCN(CC)CC)C(I)=CC(C(C2=C(CCCC)OC3=C2C=CC=C3)=O)=C1

> <standard_relation>
=

> <Publication_ID>
Garg_2008

> <predicted_activity_value>
nan

> <actual_activity_value>
0.15490195998574313

> <Compound>
Amiodarone

> <standard_units>
uM

> hash
3661700593658561652

$$$$
0
XXILIB    08252103503D 0   0.00000     0.00000

 31 33  0     1  0            999 V2000
    0.2638    0.0057    3.0702 I   0  0  0  0  0  1           0  0  0
    0.2695   -0.1673   -3.0651 I   0  0  0  0  0  1           0  0  0
   -6.6721   -2.4157   -1.5158 O   0  0  0  0  0  2           0  0  0
    1.3662    0.0000    0.0000 O   0  0  0  0  0  2           0  0  0
   -4.8672    0.8638    0.5790 O   0  0  0  0  0  2           0  0  0
    4.2023    2.4015    0.0000 N   0  0  1  0  0  3           0  0  0
   -0.7075    0.0000    1.2099 C   0  0  0  0  0  4           0  0  0
   -0.7064   -0.0709   -1.2087 C   0  0  0  0  0  4           0  0  0
   -5.6438   -3.2529   -1.2333 C   0  0  0  0  0  4           0  0  0
   -6.3152   -1.1666   -1.1000 C   0  0  0  0  0  4           0  0  0
    0.0000    0.0000   -0.0000 C   0  0  0  0  0  4           0  0  0
   -4.6085   -2.5534   -0.6281 C   0  0  0  0  0  4           0  0  0
   -5.0455   -1.1864   -0.5330 C   0  0  0  0  0  4           0  0  0
   -2.8130   -0.0634   -0.0012 C   0  0  0  0  0  4           0  0  0
   -2.1075   -0.0219    1.2093 C   0  0  0  0  0  4           0  0  0
   -2.1074   -0.0947   -1.2111 C   0  0  0  0  0  4           0  0  0
   -5.6199   -4.6196   -1.5083 C   0  0  0  0  0  4           0  0  0
   -3.4505   -3.2734   -0.2694 C   0  0  0  0  0  4           0  0  0
   -4.4609   -5.3087   -1.1440 C   0  0  0  0  0  4           0  0  0
   -3.3923   -4.6487   -0.5357 C   0  0  0  0  0  4           0  0  0
   -4.2943   -0.0826    0.0439 C   0  0  0  0  0  4           0  0  0
    1.9814    1.2885    0.0000 C   0  0  0  0  0  4           0  0  0
    3.4967    1.1161    0.0000 C   0  0  0  0  0  4           0  0  0
    3.9047    3.2475   -1.1570 C   0  0  0  0  0  4           0  0  0
    4.0766    3.1284    1.2678 C   0  0  0  0  0  4           0  0  0
   -7.3436   -0.1272   -1.3472 C   0  0  0  0  0  4           0  0  0
   -7.1844    0.5426   -2.7085 C   0  0  0  0  0  4           0  0  0
   -8.2418    1.6128   -2.9652 C   0  0  0  0  0  4           0  0  0
    4.2809    2.5715   -2.4713 C   0  0  0  0  0  4           0  0  0
    4.6408    2.3336    2.4408 C   0  0  0  0  0  4           0  0  0
   -8.0603    2.2639   -4.3276 C   0  0  0  0  0  4           0  0  0
  1  7  1  0     0  0
  2  8  1  0     0  0
  3  9  1  0     0  0
  3 10  1  0     0  0
  4 11  1  0     0  0
  4 22  1  0     0  0
  5 21  2  0     0  0
  6 23  1  0     0  0
  6 24  1  0     0  0
  6 25  1  0     0  0
  7 11  1  0     0  0
  7 15  2  0     0  0
  8 11  2  0     0  0
  8 16  1  0     0  0
  9 12  2  0     0  0
  9 17  1  0     0  0
 10 13  2  0     0  0
 10 26  1  0     0  0
 12 13  1  0     0  0
 12 18  1  0     0  0
 13 21  1  0     0  0
 14 15  1  0     0  0
 14 16  2  0     0  0
 14 21  1  0     0  0
 17 19  2  0     0  0
 18 20  2  0     0  0
 19 20  1  0     0  0
 22 23  1  0     0  0
 24 29  1  0     0  0
 25 30  1  0     0  0
 26 27  1  0     0  0
 27 28  1  0     0  0
 28 31  1  0     0  0
M  END
> <standard_type>
pIC50

> <# Confs.>
25

> <canonical_smiles>
IC1=C(OCCN(CC)CC)C(I)=CC(C(C2=C(CCCC)OC3=C2C=CC=C3)=O)=C1

> <standard_relation>
=

> <Publication_ID>
Garg_2008

> <predicted_activity_value>
nan

> <actual_activity_value>
0.15490195998574313

> <Compound>
Amiodarone

> <standard_units>
uM

> hash
3661700593658561652

$$$$
0
XXILIB    08252103503D 0   0.00000     0.00000

 31 33  0     1  0            999 V2000
    0.2638    0.0057    3.0702 I   0  0  0  0  0  1           0  0  0
    0.2695   -0.1673   -3.0651 I   0  0  0  0  0  1           0  0  0
   -6.5291    0.7890   -2.7446 O   0  0  0  0  0  2           0  0  0
    1.3662    0.0000    0.0000 O   0  0  0  0  0  2           0  0  0
   -4.8348   -0.6074    1.0147 O   0  0  0  0  0  2           0  0  0
    4.2023    2.4015    0.0000 N   0  0  1  0  0  3           0  0  0
   -0.7075    0.0000    1.2099 C   0  0  0  0  0  4           0  0  0
   -0.7064   -0.0709   -1.2087 C   0  0  0  0  0  4           0  0  0
   -5.9466    1.9890   -2.5021 C   0  0  0  0  0  4           0  0  0
   -6.0154   -0.1080   -1.8547 C   0  0  0  0  0  4           0  0  0
   -0.0000    0.0000    0.0000 C   0  0  0  0  0  4           0  0  0
   -5.0457    1.8808   -1.4514 C   0  0  0  0  0  4           0  0  0
   -5.0825    0.5071   -1.0269 C   0  0  0  0  0  4           0  0  0
   -2.8130   -0.0634   -0.0012 C   0  0  0  0  0  4           0  0  0
   -2.1075   -0.0219    1.2093 C   0  0  0  0  0  4           0  0  0
   -2.1074   -0.0947   -1.2111 C   0  0  0  0  0  4           0  0  0
   -6.2089    3.1668   -3.2007 C   0  0  0  0  0  4           0  0  0
   -4.3497    3.0431   -1.0602 C   0  0  0  0  0  4           0  0  0
   -5.5071    4.3033   -2.7923 C   0  0  0  0  0  4           0  0  0
   -4.5933    4.2452   -1.7394 C   0  0  0  0  0  4           0  0  0
   -4.2943   -0.0826    0.0439 C   0  0  0  0  0  4           0  0  0
    1.9814    1.2885    0.0000 C   0  0  0  0  0  4           0  0  0
    3.4967    1.1161   -0.0000 C   0  0  0  0  0  4           0  0  0
    5.6613    2.2832   -0.0000 C   0  0  0  0  0  4           0  0  0
    3.7189    3.3247   -1.0322 C   0  0  0  0  0  4           0  0  0
   -6.5633   -1.4795   -1.9898 C   0  0  0  0  0  4           0  0  0
   -5.7558   -2.3405   -2.9560 C   0  0  0  0  0  4           0  0  0
   -5.7131   -1.7601   -4.3670 C   0  0  0  0  0  4           0  0  0
    6.1740    1.5324    1.2245 C   0  0  0  0  0  4           0  0  0
    3.8825    2.7499   -2.4353 C   0  0  0  0  0  4           0  0  0
   -4.9026   -2.6370   -5.3088 C   0  0  0  0  0  4           0  0  0
  1  7  1  0     0  0
  2  8  1  0     0  0
  3  9  1  0     0  0
  3 10  1  0     0  0
  4 11  1  0     0  0
  4 22  1  0     0  0
  5 21  2  0     0  0
  6 23  1  0     0  0
  6 24  1  0     0  0
  6 25  1  0     0  0
  7 11  1  0     0  0
  7 15  2  0     0  0
  8 11  2  0     0  0
  8 16  1  0     0  0
  9 12  2  0     0  0
  9 17  1  0     0  0
 10 13  2  0     0  0
 10 26  1  0     0  0
 12 13  1  0     0  0
 12 18  1  0     0  0
 13 21  1  0     0  0
 14 15  1  0     0  0
 14 16  2  0     0  0
 14 21  1  0     0  0
 17 19  2  0     0  0
 18 20  2  0     0  0
 19 20  1  0     0  0
 22 23  1  0     0  0
 24 29  1  0     0  0
 25 30  1  0     0  0
 26 27  1  0     0  0
 27 28  1  0     0  0
 28 31  1  0     0  0
M  END
> <standard_type>
pIC50

> <# Confs.>
25

> <canonical_smiles>
IC1=C(OCCN(CC)CC)C(I)=CC(C(C2=C(CCCC)OC3=C2C=CC=C3)=O)=C1

> <standard_relation>
=

> <Publication_ID>
Garg_2008

> <predicted_activity_value>
nan

> <actual_activity_value>
0.15490195998574313

> <Compound>
Amiodarone

> <standard_units>
uM

> hash
3661700593658561652

$$$$
0
XXILIB    08252103503D 0   0.00000     0.00000

 31 33  0     1  0            999 V2000
    0.2638    0.0057    3.0702 I   0  0  0  0  0  1           0  0  0
    0.2695   -0.1673   -3.0651 I   0  0  0  0  0  1           0  0  0
   -6.6721   -2.4157   -1.5158 O   0  0  0  0  0  2           0  0  0
    1.3662    0.0000    0.0000 O   0  0  0  0  0  2           0  0  0
   -4.8672    0.8638    0.5790 O   0  0  0  0  0  2           0  0  0
    4.2023    2.4015    0.0000 N   0  0  1  0  0  3           0  0  0
   -0.7075    0.0000    1.2099 C   0  0  0  0  0  4           0  0  0
   -0.7064   -0.0709   -1.2087 C   0  0  0  0  0  4           0  0  0
   -5.6438   -3.2529   -1.2333 C   0  0  0  0  0  4           0  0  0
   -6.3152   -1.1666   -1.1000 C   0  0  0  0  0  4           0  0  0
    0.0000    0.0000   -0.0000 C   0  0  0  0  0  4           0  0  0
   -4.6085   -2.5534   -0.6281 C   0  0  0  0  0  4           0  0  0
   -5.0455   -1.1864   -0.5330 C   0  0  0  0  0  4           0  0  0
   -2.8130   -0.0634   -0.0012 C   0  0  0  0  0  4           0  0  0
   -2.1075   -0.0219    1.2093 C   0  0  0  0  0  4           0  0  0
   -2.1074   -0.0947   -1.2111 C   0  0  0  0  0  4           0  0  0
   -5.6199   -4.6196   -1.5083 C   0  0  0  0  0  4           0  0  0
   -3.4505   -3.2734   -0.2694 C   0  0  0  0  0  4           0  0  0
   -4.4609   -5.3087   -1.1440 C   0  0  0  0  0  4           0  0  0
   -3.3923   -4.6487   -0.5357 C   0  0  0  0  0  4           0  0  0
   -4.2943   -0.0826    0.0439 C   0  0  0  0  0  4           0  0  0
    1.9814    1.2885    0.0000 C   0  0  0  0  0  4           0  0  0
    3.4967    1.1161   -0.0000 C   0  0  0  0  0  4           0  0  0
    5.6613    2.2832   -0.0000 C   0  0  0  0  0  4           0  0  0
    3.7189    3.3247   -1.0322 C   0  0  0  0  0  4           0  0  0
   -7.3436   -0.1272   -1.3472 C   0  0  0  0  0  4           0  0  0
   -8.3156    0.0245   -0.1814 C   0  0  0  0  0  4           0  0  0
   -9.0779   -1.2627    0.1207 C   0  0  0  0  0  4           0  0  0
    6.1740    1.5324    1.2245 C   0  0  0  0  0  4           0  0  0
    3.8825    2.7499   -2.4353 C   0  0  0  0  0  4           0  0  0
  -10.0389   -1.0840    1.2858 C   0  0  0  0  0  4           0  0  0
  1  7  1  0     0  0
  2  8  1  0     0  0
  3  9  1  0     0  0
  3 10  1  0     0  0
  4 11  1  0     0  0
  4 22  1  0     0  0
  5 21  2  0     0  0
  6 23  1  0     0  0
  6 24  1  0     0  0
  6 25  1  0     0  0
  7 11  1  0     0  0
  7 15  2  0     0  0
  8 11  2  0     0  0
  8 16  1  0     0  0
  9 12  2  0     0  0
  9 17  1  0     0  0
 10 13  2  0     0  0
 10 26  1  0     0  0
 12 13  1  0     0  0
 12 18  1  0     0  0
 13 21  1  0     0  0
 14 15  1  0     0  0
 14 16  2  0     0  0
 14 21  1  0     0  0
 17 19  2  0     0  0
 18 20  2  0     0  0
 19 20  1  0     0  0
 22 23  1  0     0  0
 24 29  1  0     0  0
 25 30  1  0     0  0
 26 27  1  0     0  0
 27 28  1  0     0  0
 28 31  1  0     0  0
M  END
> <standard_type>
pIC50

> <# Confs.>
25

> <canonical_smiles>
IC1=C(OCCN(CC)CC)C(I)=CC(C(C2=C(CCCC)OC3=C2C=CC=C3)=O)=C1

> <standard_relation>
=

> <Publication_ID>
Garg_2008

> <predicted_activity_value>
nan

> <actual_activity_value>
0.15490195998574313

> <Compound>
Amiodarone

> <standard_units>
uM

> hash
3661700593658561652

$$$$
0
XXILIB    08252103503D 0   0.00000     0.00000

 31 33  0     1  0            999 V2000
    0.2638    0.0057    3.0702 I   0  0  0  0  0  1           0  0  0
    0.2695   -0.1673   -3.0651 I   0  0  0  0  0  1           0  0  0
   -6.6721   -2.4157   -1.5158 O   0  0  0  0  0  2           0  0  0
    1.3662    0.0000    0.0000 O   0  0  0  0  0  2           0  0  0
   -4.8672    0.8638    0.5790 O   0  0  0  0  0  2           0  0  0
    4.2023    2.4015    0.0000 N   0  0  1  0  0  3           0  0  0
   -0.7075    0.0000    1.2099 C   0  0  0  0  0  4           0  0  0
   -0.7064   -0.0709   -1.2087 C   0  0  0  0  0  4           0  0  0
   -5.6438   -3.2529   -1.2333 C   0  0  0  0  0  4           0  0  0
   -6.3152   -1.1666   -1.1000 C   0  0  0  0  0  4           0  0  0
    0.0000    0.0000   -0.0000 C   0  0  0  0  0  4           0  0  0
   -4.6085   -2.5534   -0.6281 C   0  0  0  0  0  4           0  0  0
   -5.0455   -1.1864   -0.5330 C   0  0  0  0  0  4           0  0  0
   -2.8130   -0.0634   -0.0012 C   0  0  0  0  0  4           0  0  0
   -2.1075   -0.0219    1.2093 C   0  0  0  0  0  4           0  0  0
   -2.1074   -0.0947   -1.2111 C   0  0  0  0  0  4           0  0  0
   -5.6199   -4.6196   -1.5083 C   0  0  0  0  0  4           0  0  0
   -3.4505   -3.2734   -0.2694 C   0  0  0  0  0  4           0  0  0
   -4.4609   -5.3087   -1.1440 C   0  0  0  0  0  4           0  0  0
   -3.3923   -4.6487   -0.5357 C   0  0  0  0  0  4           0  0  0
   -4.2943   -0.0826    0.0439 C   0  0  0  0  0  4           0  0  0
    1.9814    1.2885    0.0000 C   0  0  0  0  0  4           0  0  0
    3.4967    1.1161   -0.0000 C   0  0  0  0  0  4           0  0  0
    5.6613    2.2832   -0.0000 C   0  0  0  0  0  4           0  0  0
    3.7189    3.3247   -1.0322 C   0  0  0  0  0  4           0  0  0
   -7.3436   -0.1272   -1.3472 C   0  0  0  0  0  4           0  0  0
   -7.1844    0.5426   -2.7085 C   0  0  0  0  0  4           0  0  0
   -7.2930   -0.4453   -3.8669 C   0  0  0  0  0  4           0  0  0
    6.1740    1.5324    1.2245 C   0  0  0  0  0  4           0  0  0
    3.8825    2.7499   -2.4353 C   0  0  0  0  0  4           0  0  0
   -7.1308    0.2478   -5.2108 C   0  0  0  0  0  4           0  0  0
  1  7  1  0     0  0
  2  8  1  0     0  0
  3  9  1  0     0  0
  3 10  1  0     0  0
  4 11  1  0     0  0
  4 22  1  0     0  0
  5 21  2  0     0  0
  6 23  1  0     0  0
  6 24  1  0     0  0
  6 25  1  0     0  0
  7 11  1  0     0  0
  7 15  2  0     0  0
  8 11  2  0     0  0
  8 16  1  0     0  0
  9 12  2  0     0  0
  9 17  1  0     0  0
 10 13  2  0     0  0
 10 26  1  0     0  0
 12 13  1  0     0  0
 12 18  1  0     0  0
 13 21  1  0     0  0
 14 15  1  0     0  0
 14 16  2  0     0  0
 14 21  1  0     0  0
 17 19  2  0     0  0
 18 20  2  0     0  0
 19 20  1  0     0  0
 22 23  1  0     0  0
 24 29  1  0     0  0
 25 30  1  0     0  0
 26 27  1  0     0  0
 27 28  1  0     0  0
 28 31  1  0     0  0
M  END
> <standard_type>
pIC50

> <# Confs.>
25

> <canonical_smiles>
IC1=C(OCCN(CC)CC)C(I)=CC(C(C2=C(CCCC)OC3=C2C=CC=C3)=O)=C1

> <standard_relation>
=

> <Publication_ID>
Garg_2008

> <predicted_activity_value>
nan

> <actual_activity_value>
0.15490195998574313

> <Compound>
Amiodarone

> <standard_units>
uM

> hash
3661700593658561652

$$$$
0
XXILIB    08252103503D 0   0.00000     0.00000

 31 33  0     1  0            999 V2000
    0.2638    0.0057    3.0702 I   0  0  0  0  0  1           0  0  0
    0.2695   -0.1673   -3.0651 I   0  0  0  0  0  1           0  0  0
   -6.3320   -1.0096    2.9624 O   0  0  0  0  0  2           0  0  0
    1.3662    0.0000    0.0000 O   0  0  0  0  0  2           0  0  0
   -4.9063    0.4273   -0.8919 O   0  0  0  0  0  2           0  0  0
    4.2023    2.4015    0.0000 N   0  0  1  0  0  3           0  0  0
   -0.7075    0.0000    1.2099 C   0  0  0  0  0  4           0  0  0
   -0.7064   -0.0709   -1.2087 C   0  0  0  0  0  4           0  0  0
   -5.7344   -2.1943    2.6840 C   0  0  0  0  0  4           0  0  0
   -5.8969   -0.1002    2.0436 C   0  0  0  0  0  4           0  0  0
   -0.0000    0.0000    0.0000 C   0  0  0  0  0  4           0  0  0
   -4.9022   -2.0636    1.5805 C   0  0  0  0  0  4           0  0  0
   -5.0004   -0.6916    1.1601 C   0  0  0  0  0  4           0  0  0
   -2.8130   -0.0634   -0.0012 C   0  0  0  0  0  4           0  0  0
   -2.1075   -0.0219    1.2093 C   0  0  0  0  0  4           0  0  0
   -2.1074   -0.0947   -1.2111 C   0  0  0  0  0  4           0  0  0
   -5.9232   -3.3779    3.3962 C   0  0  0  0  0  4           0  0  0
   -4.2015   -3.2077    1.1468 C   0  0  0  0  0  4           0  0  0
   -5.2183   -4.4962    2.9451 C   0  0  0  0  0  4           0  0  0
   -4.3720   -4.4153    1.8386 C   0  0  0  0  0  4           0  0  0
   -4.2943   -0.0826    0.0439 C   0  0  0  0  0  4           0  0  0
    1.9814    1.2885    0.0000 C   0  0  0  0  0  4           0  0  0
    3.4967    1.1161   -0.0000 C   0  0  0  0  0  4           0  0  0
    5.6613    2.2832   -0.0000 C   0  0  0  0  0  4           0  0  0
    3.7189    3.3247   -1.0322 C   0  0  0  0  0  4           0  0  0
   -6.4708    1.2566    2.2129 C   0  0  0  0  0  4           0  0  0
   -7.7666    1.4465    1.4308 C   0  0  0  0  0  4           0  0  0
   -8.3593    2.8424    1.6035 C   0  0  0  0  0  4           0  0  0
    6.1740    1.5324    1.2245 C   0  0  0  0  0  4           0  0  0
    3.8825    2.7499   -2.4353 C   0  0  0  0  0  4           0  0  0
   -9.6491    3.0046    0.8141 C   0  0  0  0  0  4           0  0  0
  1  7  1  0     0  0
  2  8  1  0     0  0
  3  9  1  0     0  0
  3 10  1  0     0  0
  4 11  1  0     0  0
  4 22  1  0     0  0
  5 21  2  0     0  0
  6 23  1  0     0  0
  6 24  1  0     0  0
  6 25  1  0     0  0
  7 11  1  0     0  0
  7 15  2  0     0  0
  8 11  2  0     0  0
  8 16  1  0     0  0
  9 12  2  0     0  0
  9 17  1  0     0  0
 10 13  2  0     0  0
 10 26  1  0     0  0
 12 13  1  0     0  0
 12 18  1  0     0  0
 13 21  1  0     0  0
 14 15  1  0     0  0
 14 16  2  0     0  0
 14 21  1  0     0  0
 17 19  2  0     0  0
 18 20  2  0     0  0
 19 20  1  0     0  0
 22 23  1  0     0  0
 24 29  1  0     0  0
 25 30  1  0     0  0
 26 27  1  0     0  0
 27 28  1  0     0  0
 28 31  1  0     0  0
M  END
> <standard_type>
pIC50

> <# Confs.>
25

> <canonical_smiles>
IC1=C(OCCN(CC)CC)C(I)=CC(C(C2=C(CCCC)OC3=C2C=CC=C3)=O)=C1

> <standard_relation>
=

> <Publication_ID>
Garg_2008

> <predicted_activity_value>
nan

> <actual_activity_value>
0.15490195998574313

> <Compound>
Amiodarone

> <standard_units>
uM

> hash
3661700593658561652

$$$$
0
XXILIB    08252103503D 0   0.00000     0.00000

 31 33  0     1  0            999 V2000
    0.2638    0.0057    3.0702 I   0  0  0  0  0  1           0  0  0
    0.2695   -0.1673   -3.0651 I   0  0  0  0  0  1           0  0  0
   -6.5291    0.7890   -2.7446 O   0  0  0  0  0  2           0  0  0
    1.3662    0.0000    0.0000 O   0  0  0  0  0  2           0  0  0
   -4.8348   -0.6074    1.0147 O   0  0  0  0  0  2           0  0  0
    4.2023    2.4015    0.0000 N   0  0  1  0  0  3           0  0  0
   -0.7075    0.0000    1.2099 C   0  0  0  0  0  4           0  0  0
   -0.7064   -0.0709   -1.2087 C   0  0  0  0  0  4           0  0  0
   -5.9466    1.9890   -2.5021 C   0  0  0  0  0  4           0  0  0
   -6.0154   -0.1080   -1.8547 C   0  0  0  0  0  4           0  0  0
   -0.0000    0.0000    0.0000 C   0  0  0  0  0  4           0  0  0
   -5.0457    1.8808   -1.4514 C   0  0  0  0  0  4           0  0  0
   -5.0825    0.5071   -1.0269 C   0  0  0  0  0  4           0  0  0
   -2.8130   -0.0634   -0.0012 C   0  0  0  0  0  4           0  0  0
   -2.1075   -0.0219    1.2093 C   0  0  0  0  0  4           0  0  0
   -2.1074   -0.0947   -1.2111 C   0  0  0  0  0  4           0  0  0
   -6.2089    3.1668   -3.2007 C   0  0  0  0  0  4           0  0  0
   -4.3497    3.0431   -1.0602 C   0  0  0  0  0  4           0  0  0
   -5.5071    4.3033   -2.7923 C   0  0  0  0  0  4           0  0  0
   -4.5933    4.2452   -1.7394 C   0  0  0  0  0  4           0  0  0
   -4.2943   -0.0826    0.0439 C   0  0  0  0  0  4           0  0  0
    1.9814    1.2885    0.0000 C   0  0  0  0  0  4           0  0  0
    3.4967    1.1161    0.0000 C   0  0  0  0  0  4           0  0  0
    3.9047    3.2475   -1.1570 C   0  0  0  0  0  4           0  0  0
    4.0766    3.1284    1.2678 C   0  0  0  0  0  4           0  0  0
   -6.5633   -1.4795   -1.9898 C   0  0  0  0  0  4           0  0  0
   -5.7558   -2.3405   -2.9560 C   0  0  0  0  0  4           0  0  0
   -6.3178   -3.7525   -3.0967 C   0  0  0  0  0  4           0  0  0
    4.2809    2.5715   -2.4713 C   0  0  0  0  0  4           0  0  0
    4.6408    2.3336    2.4408 C   0  0  0  0  0  4           0  0  0
   -5.4950   -4.5888   -4.0645 C   0  0  0  0  0  4           0  0  0
  1  7  1  0     0  0
  2  8  1  0     0  0
  3  9  1  0     0  0
  3 10  1  0     0  0
  4 11  1  0     0  0
  4 22  1  0     0  0
  5 21  2  0     0  0
  6 23  1  0     0  0
  6 24  1  0     0  0
  6 25  1  0     0  0
  7 11  1  0     0  0
  7 15  2  0     0  0
  8 11  2  0     0  0
  8 16  1  0     0  0
  9 12  2  0     0  0
  9 17  1  0     0  0
 10 13  2  0     0  0
 10 26  1  0     0  0
 12 13  1  0     0  0
 12 18  1  0     0  0
 13 21  1  0     0  0
 14 15  1  0     0  0
 14 16  2  0     0  0
 14 21  1  0     0  0
 17 19  2  0     0  0
 18 20  2  0     0  0
 19 20  1  0     0  0
 22 23  1  0     0  0
 24 29  1  0     0  0
 25 30  1  0     0  0
 26 27  1  0     0  0
 27 28  1  0     0  0
 28 31  1  0     0  0
M  END
> <standard_type>
pIC50

> <# Confs.>
25

> <canonical_smiles>
IC1=C(OCCN(CC)CC)C(I)=CC(C(C2=C(CCCC)OC3=C2C=CC=C3)=O)=C1

> <standard_relation>
=

> <Publication_ID>
Garg_2008

> <predicted_activity_value>
nan

> <actual_activity_value>
0.15490195998574313

> <Compound>
Amiodarone

> <standard_units>
uM

> hash
3661700593658561652

$$$$
0
XXILIB    08252103503D 0   0.00000     0.00000

 31 33  0     1  0            999 V2000
    0.2638    0.0057    3.0702 I   0  0  0  0  0  1           0  0  0
    0.2695   -0.1673   -3.0651 I   0  0  0  0  0  1           0  0  0
   -6.5180   -1.1411   -2.6882 O   0  0  0  0  0  2           0  0  0
    1.3662    0.0000    0.0000 O   0  0  0  0  0  2           0  0  0
   -4.8498    0.4773    0.9863 O   0  0  0  0  0  2           0  0  0
    4.2023    2.4015    0.0000 N   0  0  1  0  0  3           0  0  0
   -0.7075    0.0000    1.2099 C   0  0  0  0  0  4           0  0  0
   -0.7064   -0.0709   -1.2087 C   0  0  0  0  0  4           0  0  0
   -5.9127   -2.3157   -2.3846 C   0  0  0  0  0  4           0  0  0
   -6.0076   -0.1858   -1.8591 C   0  0  0  0  0  4           0  0  0
    0.0000    0.0000   -0.0000 C   0  0  0  0  0  4           0  0  0
   -5.0033   -2.1332   -1.3516 C   0  0  0  0  0  4           0  0  0
   -5.0655   -0.7401   -0.9994 C   0  0  0  0  0  4           0  0  0
   -2.8130   -0.0634   -0.0012 C   0  0  0  0  0  4           0  0  0
   -2.1075   -0.0219    1.2093 C   0  0  0  0  0  4           0  0  0
   -2.1074   -0.0947   -1.2111 C   0  0  0  0  0  4           0  0  0
   -6.1603   -3.5349   -3.0139 C   0  0  0  0  0  4           0  0  0
   -4.2762   -3.2577   -0.9099 C   0  0  0  0  0  4           0  0  0
   -5.4261   -4.6323   -2.5581 C   0  0  0  0  0  4           0  0  0
   -4.4982   -4.4982   -1.5245 C   0  0  0  0  0  4           0  0  0
   -4.2943   -0.0826    0.0439 C   0  0  0  0  0  4           0  0  0
    1.9814    1.2885    0.0000 C   0  0  0  0  0  4           0  0  0
    3.4967    1.1161    0.0000 C   0  0  0  0  0  4           0  0  0
    3.9047    3.2475   -1.1570 C   0  0  0  0  0  4           0  0  0
    4.0766    3.1284    1.2678 C   0  0  0  0  0  4           0  0  0
   -6.5714    1.1689   -2.0737 C   0  0  0  0  0  4           0  0  0
   -7.8078    1.4311   -1.2198 C   0  0  0  0  0  4           0  0  0
   -8.3898    2.8250   -1.4390 C   0  0  0  0  0  4           0  0  0
    4.2809    2.5715   -2.4713 C   0  0  0  0  0  4           0  0  0
    4.6408    2.3336    2.4408 C   0  0  0  0  0  4           0  0  0
   -9.6202    3.0599   -0.5765 C   0  0  0  0  0  4           0  0  0
  1  7  1  0     0  0
  2  8  1  0     0  0
  3  9  1  0     0  0
  3 10  1  0     0  0
  4 11  1  0     0  0
  4 22  1  0     0  0
  5 21  2  0     0  0
  6 23  1  0     0  0
  6 24  1  0     0  0
  6 25  1  0     0  0
  7 11  1  0     0  0
  7 15  2  0     0  0
  8 11  2  0     0  0
  8 16  1  0     0  0
  9 12  2  0     0  0
  9 17  1  0     0  0
 10 13  2  0     0  0
 10 26  1  0     0  0
 12 13  1  0     0  0
 12 18  1  0     0  0
 13 21  1  0     0  0
 14 15  1  0     0  0
 14 16  2  0     0  0
 14 21  1  0     0  0
 17 19  2  0     0  0
 18 20  2  0     0  0
 19 20  1  0     0  0
 22 23  1  0     0  0
 24 29  1  0     0  0
 25 30  1  0     0  0
 26 27  1  0     0  0
 27 28  1  0     0  0
 28 31  1  0     0  0
M  END
> <standard_type>
pIC50

> <# Confs.>
25

> <canonical_smiles>
IC1=C(OCCN(CC)CC)C(I)=CC(C(C2=C(CCCC)OC3=C2C=CC=C3)=O)=C1

> <standard_relation>
=

> <Publication_ID>
Garg_2008

> <predicted_activity_value>
nan

> <actual_activity_value>
0.15490195998574313

> <Compound>
Amiodarone

> <standard_units>
uM

> hash
3661700593658561652

$$$$
0
XXILIB    08252103503D 0   0.00000     0.00000

 31 33  0     1  0            999 V2000
    0.2638    0.0057    3.0702 I   0  0  0  0  0  1           0  0  0
    0.2695   -0.1673   -3.0651 I   0  0  0  0  0  1           0  0  0
   -5.7464    2.9805   -1.3839 O   0  0  0  0  0  2           0  0  0
    1.3662    0.0000    0.0000 O   0  0  0  0  0  2           0  0  0
   -4.8413   -1.0151    0.6282 O   0  0  0  0  0  2           0  0  0
    4.2023    2.4015    0.0000 N   0  0  1  0  0  3           0  0  0
   -0.7075    0.0000    1.2099 C   0  0  0  0  0  4           0  0  0
   -0.7064   -0.0709   -1.2087 C   0  0  0  0  0  4           0  0  0
   -6.7484    2.0956   -1.6102 C   0  0  0  0  0  4           0  0  0
   -4.7321    2.3086   -0.7673 C   0  0  0  0  0  4           0  0  0
    0.0000    0.0000    0.0000 C   0  0  0  0  0  4           0  0  0
   -6.3934    0.8388   -1.1393 C   0  0  0  0  0  4           0  0  0
   -5.0750    0.9739   -0.5806 C   0  0  0  0  0  4           0  0  0
   -2.8130   -0.0634   -0.0012 C   0  0  0  0  0  4           0  0  0
   -2.1075   -0.0219    1.2093 C   0  0  0  0  0  4           0  0  0
   -2.1074   -0.0947   -1.2111 C   0  0  0  0  0  4           0  0  0
   -7.9625    2.3950   -2.2269 C   0  0  0  0  0  4           0  0  0
   -7.3230   -0.2093   -1.2986 C   0  0  0  0  0  4           0  0  0
   -8.8647    1.3388   -2.3732 C   0  0  0  0  0  4           0  0  0
   -8.5520    0.0571   -1.9186 C   0  0  0  0  0  4           0  0  0
   -4.2943   -0.0826    0.0439 C   0  0  0  0  0  4           0  0  0
    1.9814    1.2885    0.0000 C   0  0  0  0  0  4           0  0  0
    3.4967    1.1161   -0.0000 C   0  0  0  0  0  4           0  0  0
    5.6613    2.2832   -0.0000 C   0  0  0  0  0  4           0  0  0
    3.7189    3.3247   -1.0322 C   0  0  0  0  0  4           0  0  0
   -3.5493    3.1471   -0.4558 C   0  0  0  0  0  4           0  0  0
   -3.6363    3.7939    0.9230 C   0  0  0  0  0  4           0  0  0
   -2.4199    4.6575    1.2458 C   0  0  0  0  0  4           0  0  0
    6.1740    1.5324    1.2245 C   0  0  0  0  0  4           0  0  0
    3.8825    2.7499   -2.4353 C   0  0  0  0  0  4           0  0  0
   -2.5322    5.2897    2.6245 C   0  0  0  0  0  4           0  0  0
  1  7  1  0     0  0
  2  8  1  0     0  0
  3  9  1  0     0  0
  3 10  1  0     0  0
  4 11  1  0     0  0
  4 22  1  0     0  0
  5 21  2  0     0  0
  6 23  1  0     0  0
  6 24  1  0     0  0
  6 25  1  0     0  0
  7 11  1  0     0  0
  7 15  2  0     0  0
  8 11  2  0     0  0
  8 16  1  0     0  0
  9 12  2  0     0  0
  9 17  1  0     0  0
 10 13  2  0     0  0
 10 26  1  0     0  0
 12 13  1  0     0  0
 12 18  1  0     0  0
 13 21  1  0     0  0
 14 15  1  0     0  0
 14 16  2  0     0  0
 14 21  1  0     0  0
 17 19  2  0     0  0
 18 20  2  0     0  0
 19 20  1  0     0  0
 22 23  1  0     0  0
 24 29  1  0     0  0
 25 30  1  0     0  0
 26 27  1  0     0  0
 27 28  1  0     0  0
 28 31  1  0     0  0
M  END
> <standard_type>
pIC50

> <# Confs.>
25

> <canonical_smiles>
IC1=C(OCCN(CC)CC)C(I)=CC(C(C2=C(CCCC)OC3=C2C=CC=C3)=O)=C1

> <standard_relation>
=

> <Publication_ID>
Garg_2008

> <predicted_activity_value>
nan

> <actual_activity_value>
0.15490195998574313

> <Compound>
Amiodarone

> <standard_units>
uM

> hash
3661700593658561652

$$$$
0
XXILIB    08252103503D 0   0.00000     0.00000

 31 33  0     1  0            999 V2000
    0.2638    0.0057    3.0702 I   0  0  0  0  0  1           0  0  0
    0.2695   -0.1673   -3.0651 I   0  0  0  0  0  1           0  0  0
   -6.5180   -1.1411   -2.6882 O   0  0  0  0  0  2           0  0  0
    1.3662    0.0000   -0.0000 O   0  0  0  0  0  2           0  0  0
   -4.8498    0.4773    0.9863 O   0  0  0  0  0  2           0  0  0
    4.2023    2.4015   -0.0000 N   0  0  1  0  0  3           0  0  0
   -0.7075    0.0000    1.2099 C   0  0  0  0  0  4           0  0  0
   -0.7064   -0.0709   -1.2087 C   0  0  0  0  0  4           0  0  0
   -5.9127   -2.3157   -2.3846 C   0  0  0  0  0  4           0  0  0
   -6.0076   -0.1858   -1.8591 C   0  0  0  0  0  4           0  0  0
    0.0000    0.0000   -0.0000 C   0  0  0  0  0  4           0  0  0
   -5.0033   -2.1332   -1.3516 C   0  0  0  0  0  4           0  0  0
   -5.0655   -0.7401   -0.9994 C   0  0  0  0  0  4           0  0  0
   -2.8130   -0.0634   -0.0012 C   0  0  0  0  0  4           0  0  0
   -2.1075   -0.0219    1.2093 C   0  0  0  0  0  4           0  0  0
   -2.1074   -0.0947   -1.2111 C   0  0  0  0  0  4           0  0  0
   -6.1603   -3.5349   -3.0139 C   0  0  0  0  0  4           0  0  0
   -4.2762   -3.2577   -0.9099 C   0  0  0  0  0  4           0  0  0
   -5.4261   -4.6323   -2.5581 C   0  0  0  0  0  4           0  0  0
   -4.4982   -4.4982   -1.5245 C   0  0  0  0  0  4           0  0  0
   -4.2943   -0.0826    0.0439 C   0  0  0  0  0  4           0  0  0
    1.9814    1.2885   -0.0000 C   0  0  0  0  0  4           0  0  0
    3.4967    1.1161   -0.0000 C   0  0  0  0  0  4           0  0  0
    3.9047    3.2475    1.1570 C   0  0  0  0  0  4           0  0  0
    5.6439    2.2681   -0.2356 C   0  0  0  0  0  4           0  0  0
   -6.5714    1.1689   -2.0737 C   0  0  0  0  0  4           0  0  0
   -5.7804    1.9773   -3.0974 C   0  0  0  0  0  4           0  0  0
   -6.3589    3.3721   -3.3199 C   0  0  0  0  0  4           0  0  0
    4.2809    2.5715    2.4713 C   0  0  0  0  0  4           0  0  0
    5.9454    1.6175   -1.5816 C   0  0  0  0  0  4           0  0  0
   -5.5524    4.1558   -4.3438 C   0  0  0  0  0  4           0  0  0
  1  7  1  0     0  0
  2  8  1  0     0  0
  3  9  1  0     0  0
  3 10  1  0     0  0
  4 11  1  0     0  0
  4 22  1  0     0  0
  5 21  2  0     0  0
  6 23  1  0     0  0
  6 24  1  0     0  0
  6 25  1  0     0  0
  7 11  1  0     0  0
  7 15  2  0     0  0
  8 11  2  0     0  0
  8 16  1  0     0  0
  9 12  2  0     0  0
  9 17  1  0     0  0
 10 13  2  0     0  0
 10 26  1  0     0  0
 12 13  1  0     0  0
 12 18  1  0     0  0
 13 21  1  0     0  0
 14 15  1  0     0  0
 14 16  2  0     0  0
 14 21  1  0     0  0
 17 19  2  0     0  0
 18 20  2  0     0  0
 19 20  1  0     0  0
 22 23  1  0     0  0
 24 29  1  0     0  0
 25 30  1  0     0  0
 26 27  1  0     0  0
 27 28  1  0     0  0
 28 31  1  0     0  0
M  END
> <standard_type>
pIC50

> <# Confs.>
25

> <canonical_smiles>
IC1=C(OCCN(CC)CC)C(I)=CC(C(C2=C(CCCC)OC3=C2C=CC=C3)=O)=C1

> <standard_relation>
=

> <Publication_ID>
Garg_2008

> <predicted_activity_value>
nan

> <actual_activity_value>
0.15490195998574313

> <Compound>
Amiodarone

> <standard_units>
uM

> hash
3661700593658561652

$$$$
0
XXILIB    08252103503D 0   0.00000     0.00000

 31 33  0     1  0            999 V2000
    0.2638    0.0057    3.0702 I   0  0  0  0  0  1           0  0  0
    0.2695   -0.1673   -3.0651 I   0  0  0  0  0  1           0  0  0
   -6.6721   -2.4157   -1.5158 O   0  0  0  0  0  2           0  0  0
    1.3662    0.0000   -0.0000 O   0  0  0  0  0  2           0  0  0
   -4.8672    0.8638    0.5790 O   0  0  0  0  0  2           0  0  0
    4.2023    2.4015   -0.0000 N   0  0  1  0  0  3           0  0  0
   -0.7075    0.0000    1.2099 C   0  0  0  0  0  4           0  0  0
   -0.7064   -0.0709   -1.2087 C   0  0  0  0  0  4           0  0  0
   -5.6438   -3.2529   -1.2333 C   0  0  0  0  0  4           0  0  0
   -6.3152   -1.1666   -1.1000 C   0  0  0  0  0  4           0  0  0
    0.0000    0.0000   -0.0000 C   0  0  0  0  0  4           0  0  0
   -4.6085   -2.5534   -0.6281 C   0  0  0  0  0  4           0  0  0
   -5.0455   -1.1864   -0.5330 C   0  0  0  0  0  4           0  0  0
   -2.8130   -0.0634   -0.0012 C   0  0  0  0  0  4           0  0  0
   -2.1075   -0.0219    1.2093 C   0  0  0  0  0  4           0  0  0
   -2.1074   -0.0947   -1.2111 C   0  0  0  0  0  4           0  0  0
   -5.6199   -4.6196   -1.5083 C   0  0  0  0  0  4           0  0  0
   -3.4505   -3.2734   -0.2694 C   0  0  0  0  0  4           0  0  0
   -4.4609   -5.3087   -1.1440 C   0  0  0  0  0  4           0  0  0
   -3.3923   -4.6487   -0.5357 C   0  0  0  0  0  4           0  0  0
   -4.2943   -0.0826    0.0439 C   0  0  0  0  0  4           0  0  0
    1.9814    1.2885   -0.0000 C   0  0  0  0  0  4           0  0  0
    3.4967    1.1161   -0.0000 C   0  0  0  0  0  4           0  0  0
    3.9047    3.2475    1.1570 C   0  0  0  0  0  4           0  0  0
    5.6439    2.2681   -0.2356 C   0  0  0  0  0  4           0  0  0
   -7.3436   -0.1272   -1.3472 C   0  0  0  0  0  4           0  0  0
   -8.3156    0.0245   -0.1814 C   0  0  0  0  0  4           0  0  0
   -9.3750    1.0939   -0.4337 C   0  0  0  0  0  4           0  0  0
    4.2809    2.5715    2.4713 C   0  0  0  0  0  4           0  0  0
    5.9454    1.6175   -1.5816 C   0  0  0  0  0  4           0  0  0
  -10.3299    1.2244    0.7428 C   0  0  0  0  0  4           0  0  0
  1  7  1  0     0  0
  2  8  1  0     0  0
  3  9  1  0     0  0
  3 10  1  0     0  0
  4 11  1  0     0  0
  4 22  1  0     0  0
  5 21  2  0     0  0
  6 23  1  0     0  0
  6 24  1  0     0  0
  6 25  1  0     0  0
  7 11  1  0     0  0
  7 15  2  0     0  0
  8 11  2  0     0  0
  8 16  1  0     0  0
  9 12  2  0     0  0
  9 17  1  0     0  0
 10 13  2  0     0  0
 10 26  1  0     0  0
 12 13  1  0     0  0
 12 18  1  0     0  0
 13 21  1  0     0  0
 14 15  1  0     0  0
 14 16  2  0     0  0
 14 21  1  0     0  0
 17 19  2  0     0  0
 18 20  2  0     0  0
 19 20  1  0     0  0
 22 23  1  0     0  0
 24 29  1  0     0  0
 25 30  1  0     0  0
 26 27  1  0     0  0
 27 28  1  0     0  0
 28 31  1  0     0  0
M  END
> <standard_type>
pIC50

> <# Confs.>
25

> <canonical_smiles>
IC1=C(OCCN(CC)CC)C(I)=CC(C(C2=C(CCCC)OC3=C2C=CC=C3)=O)=C1

> <standard_relation>
=

> <Publication_ID>
Garg_2008

> <predicted_activity_value>
nan

> <actual_activity_value>
0.15490195998574313

> <Compound>
Amiodarone

> <standard_units>
uM

> hash
3661700593658561652

$$$$
0
XXILIB    08252103503D 0   0.00000     0.00000

 31 33  0     1  0            999 V2000
    0.2638    0.0057    3.0702 I   0  0  0  0  0  1           0  0  0
    0.2695   -0.1673   -3.0651 I   0  0  0  0  0  1           0  0  0
   -6.3320   -1.0096    2.9624 O   0  0  0  0  0  2           0  0  0
    1.3662    0.0000    0.0000 O   0  0  0  0  0  2           0  0  0
   -4.9063    0.4273   -0.8919 O   0  0  0  0  0  2           0  0  0
    4.2023    2.4015    0.0000 N   0  0  1  0  0  3           0  0  0
   -0.7075    0.0000    1.2099 C   0  0  0  0  0  4           0  0  0
   -0.7064   -0.0709   -1.2087 C   0  0  0  0  0  4           0  0  0
   -5.7344   -2.1943    2.6840 C   0  0  0  0  0  4           0  0  0
   -5.8969   -0.1002    2.0436 C   0  0  0  0  0  4           0  0  0
   -0.0000    0.0000    0.0000 C   0  0  0  0  0  4           0  0  0
   -4.9022   -2.0636    1.5805 C   0  0  0  0  0  4           0  0  0
   -5.0004   -0.6916    1.1601 C   0  0  0  0  0  4           0  0  0
   -2.8130   -0.0634   -0.0012 C   0  0  0  0  0  4           0  0  0
   -2.1075   -0.0219    1.2093 C   0  0  0  0  0  4           0  0  0
   -2.1074   -0.0947   -1.2111 C   0  0  0  0  0  4           0  0  0
   -5.9232   -3.3779    3.3962 C   0  0  0  0  0  4           0  0  0
   -4.2015   -3.2077    1.1468 C   0  0  0  0  0  4           0  0  0
   -5.2183   -4.4962    2.9451 C   0  0  0  0  0  4           0  0  0
   -4.3720   -4.4153    1.8386 C   0  0  0  0  0  4           0  0  0
   -4.2943   -0.0826    0.0439 C   0  0  0  0  0  4           0  0  0
    1.9814    1.2885    0.0000 C   0  0  0  0  0  4           0  0  0
    3.4967    1.1161   -0.0000 C   0  0  0  0  0  4           0  0  0
    5.6613    2.2832   -0.0000 C   0  0  0  0  0  4           0  0  0
    3.7189    3.3247   -1.0322 C   0  0  0  0  0  4           0  0  0
   -6.4708    1.2566    2.2129 C   0  0  0  0  0  4           0  0  0
   -5.6287    2.1391    3.1288 C   0  0  0  0  0  4           0  0  0
   -5.4852    1.5611    4.5341 C   0  0  0  0  0  4           0  0  0
    6.1740    1.5324    1.2245 C   0  0  0  0  0  4           0  0  0
    3.8825    2.7499   -2.4353 C   0  0  0  0  0  4           0  0  0
   -4.6420    2.4595    5.4256 C   0  0  0  0  0  4           0  0  0
  1  7  1  0     0  0
  2  8  1  0     0  0
  3  9  1  0     0  0
  3 10  1  0     0  0
  4 11  1  0     0  0
  4 22  1  0     0  0
  5 21  2  0     0  0
  6 23  1  0     0  0
  6 24  1  0     0  0
  6 25  1  0     0  0
  7 11  1  0     0  0
  7 15  2  0     0  0
  8 11  2  0     0  0
  8 16  1  0     0  0
  9 12  2  0     0  0
  9 17  1  0     0  0
 10 13  2  0     0  0
 10 26  1  0     0  0
 12 13  1  0     0  0
 12 18  1  0     0  0
 13 21  1  0     0  0
 14 15  1  0     0  0
 14 16  2  0     0  0
 14 21  1  0     0  0
 17 19  2  0     0  0
 18 20  2  0     0  0
 19 20  1  0     0  0
 22 23  1  0     0  0
 24 29  1  0     0  0
 25 30  1  0     0  0
 26 27  1  0     0  0
 27 28  1  0     0  0
 28 31  1  0     0  0
M  END
> <standard_type>
pIC50

> <# Confs.>
25

> <canonical_smiles>
IC1=C(OCCN(CC)CC)C(I)=CC(C(C2=C(CCCC)OC3=C2C=CC=C3)=O)=C1

> <standard_relation>
=

> <Publication_ID>
Garg_2008

> <predicted_activity_value>
nan

> <actual_activity_value>
0.15490195998574313

> <Compound>
Amiodarone

> <standard_units>
uM

> hash
3661700593658561652

$$$$
5
XXILIB    08252103503D 0   0.00000     0.00000

 22 23  0     1  0            999 V2000
   -0.5767   -7.3179   -3.2567 Cl  0  0  0  0  0  1           0  0  0
    2.0363   -5.4499    0.6166 N   0  0  0  0  0  3           0  0  0
   -0.6962   -2.4494    1.6268 N   0  0  0  0  0  3           0  0  0
    2.0990    1.1697    0.6753 N   0  0  2  0  0  3           0  0  0
   -0.4073   -6.2013   -1.9576 C   0  0  0  0  0  4           0  0  0
    0.9126   -5.3376   -0.1075 C   0  0  0  0  0  4           0  0  0
    2.2054   -4.6239    1.6642 C   0  0  0  0  0  4           0  0  0
    0.1314   -3.4882    1.2672 C   0  0  0  0  0  4           0  0  0
   -0.0937   -4.3778    0.1744 C   0  0  0  0  0  4           0  0  0
    0.7419   -6.2203   -1.1699 C   0  0  0  0  0  4           0  0  0
   -1.4188   -5.2960   -1.6868 C   0  0  0  0  0  4           0  0  0
    1.2996   -3.6500    2.0252 C   0  0  0  0  0  4           0  0  0
   -1.2641   -4.4008   -0.6283 C   0  0  0  0  0  4           0  0  0
   -0.2789   -1.2058    2.2633 C   0  0  1  0  0  4           0  0  0
    1.5310    0.0000    0.0000 C   0  0  0  0  0  4           0  0  0
    1.7258    2.4595    0.0921 C   0  0  0  0  0  4           0  0  0
    3.5084    1.0425    1.0420 C   0  0  0  0  0  4           0  0  0
   -0.6410    0.0000    1.3872 C   0  0  0  0  0  4           0  0  0
    0.0000    0.0000    0.0000 C   0  0  0  0  0  4           0  0  0
   -0.8352   -1.0973    3.6838 C   0  0  0  0  0  4           0  0  0
    2.1723    2.5791   -1.3613 C   0  0  0  0  0  4           0  0  0
    3.7475   -0.1262    1.9923 C   0  0  0  0  0  4           0  0  0
  1  5  1  0     0  0
  2  6  1  0     0  0
  2  7  2  0     0  0
  3  8  1  0     0  0
  3 14  1  0     0  0
  4 15  1  0     0  0
  4 16  1  0     0  0
  4 17  1  0     0  0
  5 10  1  0     0  0
  5 11  2  0     0  0
  6  9  1  0     0  0
  6 10  2  0     0  0
  7 12  1  0     0  0
  8  9  1  0     0  0
  8 12  2  0     0  0
  9 13  2  0     0  0
 11 13  1  0     0  0
 14 18  1  0     0  0
 14 20  1  0     0  0
 15 19  1  0     0  0
 16 21  1  0     0  0
 17 22  1  0     0  0
 18 19  1  0     0  0
M  END
> <standard_type>
pIC50

> <# Confs.>
25

> <canonical_smiles>
CC(CCCN(CC)CC)NC1=CC=NC2=CC(Cl)=CC=C12

> <standard_relation>
=

> <Publication_ID>
nan

> <predicted_activity_value>
nan

> <actual_activity_value>
-0.3979400086720376

> <Compound>
Chloroquine

> <standard_units>
uM

> hash
16382377881588490945

$$$$
5
XXILIB    08252103503D 0   0.00000     0.00000

 22 23  0     1  0            999 V2000
   -3.7568    5.2953   -4.7261 Cl  0  0  0  0  0  1           0  0  0
   -5.1174    0.9002   -2.6889 N   0  0  0  0  0  3           0  0  0
   -2.6905    1.1811    0.7053 N   0  0  0  0  0  3           0  0  0
    2.0990    0.0000   -1.3507 N   0  0  2  0  0  3           0  0  0
   -3.6609    4.1320   -3.4610 C   0  0  0  0  0  4           0  0  0
   -4.3502    1.9904   -2.5393 C   0  0  0  0  0  4           0  0  0
   -5.1063   -0.0264   -1.7143 C   0  0  0  0  0  4           0  0  0
   -3.4971    1.1805   -0.4094 C   0  0  0  0  0  4           0  0  0
   -3.5191    2.1992   -1.4084 C   0  0  0  0  0  4           0  0  0
   -4.3971    2.9519   -3.5445 C   0  0  0  0  0  4           0  0  0
   -2.8651    4.3761   -2.3551 C   0  0  0  0  0  4           0  0  0
   -4.3330    0.0676   -0.5775 C   0  0  0  0  0  4           0  0  0
   -2.8024    3.4225   -1.3391 C   0  0  0  0  0  4           0  0  0
   -2.1748   -0.0000    1.3872 C   0  0  1  0  0  4           0  0  0
    1.5310   -0.0000   -0.0000 C   0  0  0  0  0  4           0  0  0
    3.5619    0.0000   -1.4038 C   0  0  0  0  0  4           0  0  0
    1.4470    0.9100   -2.2907 C   0  0  0  0  0  4           0  0  0
   -0.6410    0.0000    1.3872 C   0  0  0  0  0  4           0  0  0
    0.0000   -0.0000    0.0000 C   0  0  0  0  0  4           0  0  0
   -2.7695   -0.1330    2.7900 C   0  0  0  0  0  4           0  0  0
    4.1579   -1.2249   -0.7178 C   0  0  0  0  0  4           0  0  0
    1.5189    2.3602   -1.8241 C   0  0  0  0  0  4           0  0  0
  1  5  1  0     0  0
  2  6  1  0     0  0
  2  7  2  0     0  0
  3  8  1  0     0  0
  3 14  1  0     0  0
  4 15  1  0     0  0
  4 16  1  0     0  0
  4 17  1  0     0  0
  5 10  1  0     0  0
  5 11  2  0     0  0
  6  9  1  0     0  0
  6 10  2  0     0  0
  7 12  1  0     0  0
  8  9  1  0     0  0
  8 12  2  0     0  0
  9 13  2  0     0  0
 11 13  1  0     0  0
 14 18  1  0     0  0
 14 20  1  0     0  0
 15 19  1  0     0  0
 16 21  1  0     0  0
 17 22  1  0     0  0
 18 19  1  0     0  0
M  END
> <standard_type>
pIC50

> <# Confs.>
25

> <canonical_smiles>
CC(CCCN(CC)CC)NC1=CC=NC2=CC(Cl)=CC=C12

> <standard_relation>
=

> <Publication_ID>
nan

> <predicted_activity_value>
nan

> <actual_activity_value>
-0.3979400086720376

> <Compound>
Chloroquine

> <standard_units>
uM

> hash
16382377881588490945

$$$$
5
XXILIB    08252103503D 0   0.00000     0.00000

 22 23  0     1  0            999 V2000
   -2.1849   -7.2654   -2.5026 Cl  0  0  0  0  0  1           0  0  0
   -1.8012   -5.0564    2.0020 N   0  0  0  0  0  3           0  0  0
   -2.6905   -1.1811    0.7053 N   0  0  0  0  0  3           0  0  0
    2.0990   -1.1697    0.6753 N   0  0  2  0  0  3           0  0  0
   -2.2761   -5.8676   -1.5020 C   0  0  0  0  0  4           0  0  0
   -2.0600   -4.8607    0.7004 C   0  0  0  0  0  4           0  0  0
   -1.8901   -4.0046    2.8353 C   0  0  0  0  0  4           0  0  0
   -2.4541   -2.4877    1.0661 C   0  0  0  0  0  4           0  0  0
   -2.4067   -3.5933    0.1651 C   0  0  0  0  0  4           0  0  0
   -1.9915   -5.9668   -0.1416 C   0  0  0  0  0  4           0  0  0
   -2.6466   -4.6500   -2.0460 C   0  0  0  0  0  4           0  0  0
   -2.2101   -2.7282    2.4255 C   0  0  0  0  0  4           0  0  0
   -2.7172   -3.5293   -1.2185 C   0  0  0  0  0  4           0  0  0
   -2.1748    0.0000    1.3872 C   0  0  1  0  0  4           0  0  0
    1.5310    0.0000    0.0000 C   0  0  0  0  0  4           0  0  0
    3.5619   -1.2158    0.7019 C   0  0  0  0  0  4           0  0  0
    1.4470   -2.4388    0.3573 C   0  0  0  0  0  4           0  0  0
   -0.6410    0.0000    1.3872 C   0  0  0  0  0  4           0  0  0
    0.0000    0.0000    0.0000 C   0  0  0  0  0  4           0  0  0
   -2.7695    1.2813    0.8010 C   0  0  0  0  0  4           0  0  0
    4.1579   -0.0092    1.4197 C   0  0  0  0  0  4           0  0  0
    1.5189   -2.7599   -1.1319 C   0  0  0  0  0  4           0  0  0
  1  5  1  0     0  0
  2  6  1  0     0  0
  2  7  2  0     0  0
  3  8  1  0     0  0
  3 14  1  0     0  0
  4 15  1  0     0  0
  4 16  1  0     0  0
  4 17  1  0     0  0
  5 10  1  0     0  0
  5 11  2  0     0  0
  6  9  1  0     0  0
  6 10  2  0     0  0
  7 12  1  0     0  0
  8  9  1  0     0  0
  8 12  2  0     0  0
  9 13  2  0     0  0
 11 13  1  0     0  0
 14 18  1  0     0  0
 14 20  1  0     0  0
 15 19  1  0     0  0
 16 21  1  0     0  0
 17 22  1  0     0  0
 18 19  1  0     0  0
M  END
> <standard_type>
pIC50

> <# Confs.>
25

> <canonical_smiles>
CC(CCCN(CC)CC)NC1=CC=NC2=CC(Cl)=CC=C12

> <standard_relation>
=

> <Publication_ID>
nan

> <predicted_activity_value>
nan

> <actual_activity_value>
-0.3979400086720376

> <Compound>
Chloroquine

> <standard_units>
uM

> hash
16382377881588490945

$$$$
5
XXILIB    08252103503D 0   0.00000     0.00000

 22 23  0     1  0            999 V2000
   -1.6358   -8.8479   -0.7694 Cl  0  0  0  0  0  1           0  0  0
    1.4100   -6.0338    2.0807 N   0  0  0  0  0  3           0  0  0
   -0.6962   -2.4494    1.6268 N   0  0  0  0  0  3           0  0  0
    2.0990    1.1697    0.6753 N   0  0  2  0  0  3           0  0  0
   -1.2205   -7.3408   -0.0487 C   0  0  0  0  0  4           0  0  0
    0.2998   -6.0349    1.3277 C   0  0  0  0  0  4           0  0  0
    1.7635   -4.8906    2.6944 C   0  0  0  0  0  4           0  0  0
   -0.0837   -3.6732    1.7699 C   0  0  0  0  0  4           0  0  0
   -0.5054   -4.8819    1.1393 C   0  0  0  0  0  4           0  0  0
   -0.0660   -7.2346    0.7242 C   0  0  0  0  0  4           0  0  0
   -2.0410   -6.2401   -0.2246 C   0  0  0  0  0  4           0  0  0
    1.0625   -3.7100    2.5762 C   0  0  0  0  0  4           0  0  0
   -1.6888   -5.0281    0.3694 C   0  0  0  0  0  4           0  0  0
   -0.2789   -1.2058    2.2633 C   0  0  1  0  0  4           0  0  0
    1.5310    0.0000    0.0000 C   0  0  0  0  0  4           0  0  0
    1.7258    2.4595    0.0921 C   0  0  0  0  0  4           0  0  0
    3.5084    1.0425    1.0420 C   0  0  0  0  0  4           0  0  0
   -0.6410   -0.0000    1.3872 C   0  0  0  0  0  4           0  0  0
    0.0000    0.0000    0.0000 C   0  0  0  0  0  4           0  0  0
   -0.8352   -1.0973    3.6838 C   0  0  0  0  0  4           0  0  0
    2.1723    2.5791   -1.3613 C   0  0  0  0  0  4           0  0  0
    3.7475   -0.1262    1.9923 C   0  0  0  0  0  4           0  0  0
  1  5  1  0     0  0
  2  6  1  0     0  0
  2  7  2  0     0  0
  3  8  1  0     0  0
  3 14  1  0     0  0
  4 15  1  0     0  0
  4 16  1  0     0  0
  4 17  1  0     0  0
  5 10  1  0     0  0
  5 11  2  0     0  0
  6  9  1  0     0  0
  6 10  2  0     0  0
  7 12  1  0     0  0
  8  9  1  0     0  0
  8 12  2  0     0  0
  9 13  2  0     0  0
 11 13  1  0     0  0
 14 18  1  0     0  0
 14 20  1  0     0  0
 15 19  1  0     0  0
 16 21  1  0     0  0
 17 22  1  0     0  0
 18 19  1  0     0  0
M  END
> <standard_type>
pIC50

> <# Confs.>
25

> <canonical_smiles>
CC(CCCN(CC)CC)NC1=CC=NC2=CC(Cl)=CC=C12

> <standard_relation>
=

> <Publication_ID>
nan

> <predicted_activity_value>
nan

> <actual_activity_value>
-0.3979400086720376

> <Compound>
Chloroquine

> <standard_units>
uM

> hash
16382377881588490945

$$$$
5
XXILIB    08252103503D 0   0.00000     0.00000

 22 23  0     1  0            999 V2000
   -3.7568    5.2953   -4.7261 Cl  0  0  0  0  0  1           0  0  0
   -5.1174    0.9002   -2.6889 N   0  0  0  0  0  3           0  0  0
   -2.6905    1.1811    0.7053 N   0  0  0  0  0  3           0  0  0
    2.0990   -1.1697    0.6753 N   0  0  2  0  0  3           0  0  0
   -3.6609    4.1320   -3.4610 C   0  0  0  0  0  4           0  0  0
   -4.3502    1.9904   -2.5393 C   0  0  0  0  0  4           0  0  0
   -5.1063   -0.0264   -1.7143 C   0  0  0  0  0  4           0  0  0
   -3.4971    1.1805   -0.4094 C   0  0  0  0  0  4           0  0  0
   -3.5191    2.1992   -1.4084 C   0  0  0  0  0  4           0  0  0
   -4.3971    2.9519   -3.5445 C   0  0  0  0  0  4           0  0  0
   -2.8651    4.3761   -2.3551 C   0  0  0  0  0  4           0  0  0
   -4.3330    0.0676   -0.5775 C   0  0  0  0  0  4           0  0  0
   -2.8024    3.4225   -1.3391 C   0  0  0  0  0  4           0  0  0
   -2.1748   -0.0000    1.3872 C   0  0  1  0  0  4           0  0  0
    1.5310    0.0000    0.0000 C   0  0  0  0  0  4           0  0  0
    3.5619   -1.2158    0.7019 C   0  0  0  0  0  4           0  0  0
    1.4470   -2.4388    0.3573 C   0  0  0  0  0  4           0  0  0
   -0.6410    0.0000    1.3872 C   0  0  0  0  0  4           0  0  0
    0.0000   -0.0000    0.0000 C   0  0  0  0  0  4           0  0  0
   -2.7695   -0.1330    2.7900 C   0  0  0  0  0  4           0  0  0
    4.1579   -0.0092    1.4197 C   0  0  0  0  0  4           0  0  0
    1.5189   -2.7599   -1.1319 C   0  0  0  0  0  4           0  0  0
  1  5  1  0     0  0
  2  6  1  0     0  0
  2  7  2  0     0  0
  3  8  1  0     0  0
  3 14  1  0     0  0
  4 15  1  0     0  0
  4 16  1  0     0  0
  4 17  1  0     0  0
  5 10  1  0     0  0
  5 11  2  0     0  0
  6  9  1  0     0  0
  6 10  2  0     0  0
  7 12  1  0     0  0
  8  9  1  0     0  0
  8 12  2  0     0  0
  9 13  2  0     0  0
 11 13  1  0     0  0
 14 18  1  0     0  0
 14 20  1  0     0  0
 15 19  1  0     0  0
 16 21  1  0     0  0
 17 22  1  0     0  0
 18 19  1  0     0  0
M  END
> <standard_type>
pIC50

> <# Confs.>
25

> <canonical_smiles>
CC(CCCN(CC)CC)NC1=CC=NC2=CC(Cl)=CC=C12

> <standard_relation>
=

> <Publication_ID>
nan

> <predicted_activity_value>
nan

> <actual_activity_value>
-0.3979400086720376

> <Compound>
Chloroquine

> <standard_units>
uM

> hash
16382377881588490945

$$$$
5
XXILIB    08252103503D 0   0.00000     0.00000

 22 23  0     1  0            999 V2000
   -1.6358   -8.8479   -0.7694 Cl  0  0  0  0  0  1           0  0  0
    1.4100   -6.0338    2.0807 N   0  0  0  0  0  3           0  0  0
   -0.6962   -2.4494    1.6268 N   0  0  0  0  0  3           0  0  0
    2.0990    1.1697    0.6753 N   0  0  2  0  0  3           0  0  0
   -1.2205   -7.3408   -0.0487 C   0  0  0  0  0  4           0  0  0
    0.2998   -6.0349    1.3277 C   0  0  0  0  0  4           0  0  0
    1.7635   -4.8906    2.6944 C   0  0  0  0  0  4           0  0  0
   -0.0837   -3.6732    1.7699 C   0  0  0  0  0  4           0  0  0
   -0.5054   -4.8819    1.1393 C   0  0  0  0  0  4           0  0  0
   -0.0660   -7.2346    0.7242 C   0  0  0  0  0  4           0  0  0
   -2.0410   -6.2401   -0.2246 C   0  0  0  0  0  4           0  0  0
    1.0625   -3.7100    2.5762 C   0  0  0  0  0  4           0  0  0
   -1.6888   -5.0281    0.3694 C   0  0  0  0  0  4           0  0  0
   -0.2789   -1.2058    2.2633 C   0  0  1  0  0  4           0  0  0
    1.5310    0.0000    0.0000 C   0  0  0  0  0  4           0  0  0
    1.7258    2.4595    0.0921 C   0  0  0  0  0  4           0  0  0
    3.5084    1.0425    1.0420 C   0  0  0  0  0  4           0  0  0
   -0.6410   -0.0000    1.3872 C   0  0  0  0  0  4           0  0  0
    0.0000    0.0000    0.0000 C   0  0  0  0  0  4           0  0  0
   -0.8352   -1.0973    3.6838 C   0  0  0  0  0  4           0  0  0
    2.1723    2.5791   -1.3613 C   0  0  0  0  0  4           0  0  0
    4.0318    2.2939    1.7393 C   0  0  0  0  0  4           0  0  0
  1  5  1  0     0  0
  2  6  1  0     0  0
  2  7  2  0     0  0
  3  8  1  0     0  0
  3 14  1  0     0  0
  4 15  1  0     0  0
  4 16  1  0     0  0
  4 17  1  0     0  0
  5 10  1  0     0  0
  5 11  2  0     0  0
  6  9  1  0     0  0
  6 10  2  0     0  0
  7 12  1  0     0  0
  8  9  1  0     0  0
  8 12  2  0     0  0
  9 13  2  0     0  0
 11 13  1  0     0  0
 14 18  1  0     0  0
 14 20  1  0     0  0
 15 19  1  0     0  0
 16 21  1  0     0  0
 17 22  1  0     0  0
 18 19  1  0     0  0
M  END
> <standard_type>
pIC50

> <# Confs.>
25

> <canonical_smiles>
CC(CCCN(CC)CC)NC1=CC=NC2=CC(Cl)=CC=C12

> <standard_relation>
=

> <Publication_ID>
nan

> <predicted_activity_value>
nan

> <actual_activity_value>
-0.3979400086720376

> <Compound>
Chloroquine

> <standard_units>
uM

> hash
16382377881588490945

$$$$
5
XXILIB    08252103503D 0   0.00000     0.00000

 22 23  0     1  0            999 V2000
   -4.7736   -1.9104    8.4280 Cl  0  0  0  0  0  1           0  0  0
   -0.2865   -2.0972    6.1587 N   0  0  0  0  0  3           0  0  0
   -0.9361    1.1158    3.5617 N   0  0  0  0  0  3           0  0  0
    2.0990   -1.1697    0.6753 N   0  0  2  0  0  3           0  0  0
   -3.6431   -1.3011    7.2817 C   0  0  0  0  0  4           0  0  0
   -1.4634   -1.4561    6.2158 C   0  0  0  0  0  4           0  0  0
    0.6466   -1.6430    5.3034 C   0  0  0  0  0  4           0  0  0
   -0.7760    0.1016    4.4776 C   0  0  0  0  0  4           0  0  0
   -1.7702   -0.3334    5.4043 C   0  0  0  0  0  4           0  0  0
   -2.4057   -1.9228    7.1277 C   0  0  0  0  0  4           0  0  0
   -3.9577   -0.1856    6.5250 C   0  0  0  0  0  4           0  0  0
    0.4557   -0.5678    4.4626 C   0  0  0  0  0  4           0  0  0
   -3.0275    0.2946    5.6032 C   0  0  0  0  0  4           0  0  0
   -0.2789    1.2058    2.2633 C   0  0  1  0  0  4           0  0  0
    1.5310    0.0000    0.0000 C   0  0  0  0  0  4           0  0  0
    3.5619   -1.2158    0.7019 C   0  0  0  0  0  4           0  0  0
    1.4470   -2.4388    0.3573 C   0  0  0  0  0  4           0  0  0
   -0.6410    0.0000    1.3872 C   0  0  0  0  0  4           0  0  0
    0.0000    0.0000    0.0000 C   0  0  0  0  0  4           0  0  0
   -0.5749    2.5441    1.5848 C   0  0  0  0  0  4           0  0  0
    4.1579   -0.0092    1.4197 C   0  0  0  0  0  4           0  0  0
    1.5189   -2.7599   -1.1319 C   0  0  0  0  0  4           0  0  0
  1  5  1  0     0  0
  2  6  1  0     0  0
  2  7  2  0     0  0
  3  8  1  0     0  0
  3 14  1  0     0  0
  4 15  1  0     0  0
  4 16  1  0     0  0
  4 17  1  0     0  0
  5 10  1  0     0  0
  5 11  2  0     0  0
  6  9  1  0     0  0
  6 10  2  0     0  0
  7 12  1  0     0  0
  8  9  1  0     0  0
  8 12  2  0     0  0
  9 13  2  0     0  0
 11 13  1  0     0  0
 14 18  1  0     0  0
 14 20  1  0     0  0
 15 19  1  0     0  0
 16 21  1  0     0  0
 17 22  1  0     0  0
 18 19  1  0     0  0
M  END
> <standard_type>
pIC50

> <# Confs.>
25

> <canonical_smiles>
CC(CCCN(CC)CC)NC1=CC=NC2=CC(Cl)=CC=C12

> <standard_relation>
=

> <Publication_ID>
nan

> <predicted_activity_value>
nan

> <actual_activity_value>
-0.3979400086720376

> <Compound>
Chloroquine

> <standard_units>
uM

> hash
16382377881588490945

$$$$
5
XXILIB    08252103503D 0   0.00000     0.00000

 22 23  0     1  0            999 V2000
   -6.1302    5.9894   -2.8461 Cl  0  0  0  0  0  1           0  0  0
   -6.2649    1.1526   -1.4656 N   0  0  0  0  0  3           0  0  0
   -2.6905    1.1811    0.7053 N   0  0  0  0  0  3           0  0  0
    2.0990    0.0000   -1.3507 N   0  0  2  0  0  3           0  0  0
   -5.4551    4.6476   -2.0054 C   0  0  0  0  0  4           0  0  0
   -5.5735    2.2995   -1.3862 C   0  0  0  0  0  4           0  0  0
   -5.8000    0.0802   -0.8005 C   0  0  0  0  0  4           0  0  0
   -3.8788    1.2595    0.0163 C   0  0  0  0  0  4           0  0  0
   -4.3693    2.4244   -0.6462 C   0  0  0  0  0  4           0  0  0
   -6.0856    3.4061   -2.0572 C   0  0  0  0  0  4           0  0  0
   -4.2955    4.8062   -1.2664 C   0  0  0  0  0  4           0  0  0
   -4.6389    0.0838   -0.0582 C   0  0  0  0  0  4           0  0  0
   -3.7652    3.7076   -0.5901 C   0  0  0  0  0  4           0  0  0
   -2.1748    0.0000    1.3872 C   0  0  1  0  0  4           0  0  0
    1.5310   -0.0000   -0.0000 C   0  0  0  0  0  4           0  0  0
    3.5619    0.0000   -1.4038 C   0  0  0  0  0  4           0  0  0
    1.4470    0.9100   -2.2907 C   0  0  0  0  0  4           0  0  0
   -0.6410    0.0000    1.3872 C   0  0  0  0  0  4           0  0  0
    0.0000    0.0000    0.0000 C   0  0  0  0  0  4           0  0  0
   -2.7695   -0.1330    2.7900 C   0  0  0  0  0  4           0  0  0
    4.1579   -1.2249   -0.7178 C   0  0  0  0  0  4           0  0  0
    1.5189    2.3602   -1.8241 C   0  0  0  0  0  4           0  0  0
  1  5  1  0     0  0
  2  6  1  0     0  0
  2  7  2  0     0  0
  3  8  1  0     0  0
  3 14  1  0     0  0
  4 15  1  0     0  0
  4 16  1  0     0  0
  4 17  1  0     0  0
  5 10  1  0     0  0
  5 11  2  0     0  0
  6  9  1  0     0  0
  6 10  2  0     0  0
  7 12  1  0     0  0
  8  9  1  0     0  0
  8 12  2  0     0  0
  9 13  2  0     0  0
 11 13  1  0     0  0
 14 18  1  0     0  0
 14 20  1  0     0  0
 15 19  1  0     0  0
 16 21  1  0     0  0
 17 22  1  0     0  0
 18 19  1  0     0  0
M  END
> <standard_type>
pIC50

> <# Confs.>
25

> <canonical_smiles>
CC(CCCN(CC)CC)NC1=CC=NC2=CC(Cl)=CC=C12

> <standard_relation>
=

> <Publication_ID>
nan

> <predicted_activity_value>
nan

> <actual_activity_value>
-0.3979400086720376

> <Compound>
Chloroquine

> <standard_units>
uM

> hash
16382377881588490945

$$$$
5
XXILIB    08252103503D 0   0.00000     0.00000

 22 23  0     1  0            999 V2000
   -0.5767   -7.3179   -3.2567 Cl  0  0  0  0  0  1           0  0  0
    2.0363   -5.4499    0.6166 N   0  0  0  0  0  3           0  0  0
   -0.6962   -2.4494    1.6268 N   0  0  0  0  0  3           0  0  0
    2.0990    0.0000   -1.3507 N   0  0  2  0  0  3           0  0  0
   -0.4073   -6.2013   -1.9576 C   0  0  0  0  0  4           0  0  0
    0.9126   -5.3376   -0.1075 C   0  0  0  0  0  4           0  0  0
    2.2054   -4.6239    1.6642 C   0  0  0  0  0  4           0  0  0
    0.1314   -3.4882    1.2672 C   0  0  0  0  0  4           0  0  0
   -0.0937   -4.3778    0.1744 C   0  0  0  0  0  4           0  0  0
    0.7419   -6.2203   -1.1699 C   0  0  0  0  0  4           0  0  0
   -1.4188   -5.2960   -1.6868 C   0  0  0  0  0  4           0  0  0
    1.2996   -3.6500    2.0252 C   0  0  0  0  0  4           0  0  0
   -1.2641   -4.4008   -0.6283 C   0  0  0  0  0  4           0  0  0
   -0.2789   -1.2058    2.2633 C   0  0  1  0  0  4           0  0  0
    1.5310   -0.0000   -0.0000 C   0  0  0  0  0  4           0  0  0
    3.5619    0.0000   -1.4038 C   0  0  0  0  0  4           0  0  0
    1.4470    0.9100   -2.2907 C   0  0  0  0  0  4           0  0  0
   -0.6410    0.0000    1.3872 C   0  0  0  0  0  4           0  0  0
    0.0000    0.0000    0.0000 C   0  0  0  0  0  4           0  0  0
   -0.8352   -1.0973    3.6838 C   0  0  0  0  0  4           0  0  0
    4.1579   -1.2249   -0.7178 C   0  0  0  0  0  4           0  0  0
    1.5189    2.3602   -1.8241 C   0  0  0  0  0  4           0  0  0
  1  5  1  0     0  0
  2  6  1  0     0  0
  2  7  2  0     0  0
  3  8  1  0     0  0
  3 14  1  0     0  0
  4 15  1  0     0  0
  4 16  1  0     0  0
  4 17  1  0     0  0
  5 10  1  0     0  0
  5 11  2  0     0  0
  6  9  1  0     0  0
  6 10  2  0     0  0
  7 12  1  0     0  0
  8  9  1  0     0  0
  8 12  2  0     0  0
  9 13  2  0     0  0
 11 13  1  0     0  0
 14 18  1  0     0  0
 14 20  1  0     0  0
 15 19  1  0     0  0
 16 21  1  0     0  0
 17 22  1  0     0  0
 18 19  1  0     0  0
M  END
> <standard_type>
pIC50

> <# Confs.>
25

> <canonical_smiles>
CC(CCCN(CC)CC)NC1=CC=NC2=CC(Cl)=CC=C12

> <standard_relation>
=

> <Publication_ID>
nan

> <predicted_activity_value>
nan

> <actual_activity_value>
-0.3979400086720376

> <Compound>
Chloroquine

> <standard_units>
uM

> hash
16382377881588490945

$$$$
5
XXILIB    08252103503D 0   0.00000     0.00000

 22 23  0     1  0            999 V2000
   -7.5848    5.2464   -1.9562 Cl  0  0  0  0  0  1           0  0  0
   -4.9312    1.0601   -2.8237 N   0  0  0  0  0  3           0  0  0
   -2.6905    1.1811    0.7053 N   0  0  0  0  0  3           0  0  0
    2.0990    0.0000   -1.3507 N   0  0  2  0  0  3           0  0  0
   -6.4034    4.0899   -1.4765 C   0  0  0  0  0  4           0  0  0
   -5.1450    2.0677   -1.9642 C   0  0  0  0  0  4           0  0  0
   -4.0420    0.1100   -2.4845 C   0  0  0  0  0  4           0  0  0
   -3.4971    1.1805   -0.4094 C   0  0  0  0  0  4           0  0  0
   -4.4641    2.1814   -0.7246 C   0  0  0  0  0  4           0  0  0
   -6.0900    3.0257   -2.3195 C   0  0  0  0  0  4           0  0  0
   -5.7770    4.2092   -0.2480 C   0  0  0  0  0  4           0  0  0
   -3.3180    0.1228   -1.3120 C   0  0  0  0  0  4           0  0  0
   -4.8243    3.2608    0.1239 C   0  0  0  0  0  4           0  0  0
   -2.1748   -0.0000    1.3872 C   0  0  1  0  0  4           0  0  0
    1.5310   -0.0000   -0.0000 C   0  0  0  0  0  4           0  0  0
    3.5619    0.0000   -1.4038 C   0  0  0  0  0  4           0  0  0
    1.4470    0.9100   -2.2907 C   0  0  0  0  0  4           0  0  0
   -0.6410    0.0000    1.3872 C   0  0  0  0  0  4           0  0  0
    0.0000   -0.0000    0.0000 C   0  0  0  0  0  4           0  0  0
   -2.7695   -0.1330    2.7900 C   0  0  0  0  0  4           0  0  0
    4.1579   -1.2249   -0.7178 C   0  0  0  0  0  4           0  0  0
    1.5189    2.3602   -1.8241 C   0  0  0  0  0  4           0  0  0
  1  5  1  0     0  0
  2  6  1  0     0  0
  2  7  2  0     0  0
  3  8  1  0     0  0
  3 14  1  0     0  0
  4 15  1  0     0  0
  4 16  1  0     0  0
  4 17  1  0     0  0
  5 10  1  0     0  0
  5 11  2  0     0  0
  6  9  1  0     0  0
  6 10  2  0     0  0
  7 12  1  0     0  0
  8  9  1  0     0  0
  8 12  2  0     0  0
  9 13  2  0     0  0
 11 13  1  0     0  0
 14 18  1  0     0  0
 14 20  1  0     0  0
 15 19  1  0     0  0
 16 21  1  0     0  0
 17 22  1  0     0  0
 18 19  1  0     0  0
M  END
> <standard_type>
pIC50

> <# Confs.>
25

> <canonical_smiles>
CC(CCCN(CC)CC)NC1=CC=NC2=CC(Cl)=CC=C12

> <standard_relation>
=

> <Publication_ID>
nan

> <predicted_activity_value>
nan

> <actual_activity_value>
-0.3979400086720376

> <Compound>
Chloroquine

> <standard_units>
uM

> hash
16382377881588490945

$$$$
5
XXILIB    08252103503D 0   0.00000     0.00000

 22 23  0     1  0            999 V2000
   -0.5767   -7.3179   -3.2567 Cl  0  0  0  0  0  1           0  0  0
    2.0363   -5.4499    0.6166 N   0  0  0  0  0  3           0  0  0
   -0.6962   -2.4494    1.6268 N   0  0  0  0  0  3           0  0  0
    2.0990    0.0000   -1.3507 N   0  0  2  0  0  3           0  0  0
   -0.4073   -6.2013   -1.9576 C   0  0  0  0  0  4           0  0  0
    0.9126   -5.3376   -0.1075 C   0  0  0  0  0  4           0  0  0
    2.2054   -4.6239    1.6642 C   0  0  0  0  0  4           0  0  0
    0.1314   -3.4882    1.2672 C   0  0  0  0  0  4           0  0  0
   -0.0937   -4.3778    0.1744 C   0  0  0  0  0  4           0  0  0
    0.7419   -6.2203   -1.1699 C   0  0  0  0  0  4           0  0  0
   -1.4188   -5.2960   -1.6868 C   0  0  0  0  0  4           0  0  0
    1.2996   -3.6500    2.0252 C   0  0  0  0  0  4           0  0  0
   -1.2641   -4.4008   -0.6283 C   0  0  0  0  0  4           0  0  0
   -0.2789   -1.2058    2.2633 C   0  0  1  0  0  4           0  0  0
    1.5310    0.0000   -0.0000 C   0  0  0  0  0  4           0  0  0
    1.7258    1.1500   -2.1760 C   0  0  0  0  0  4           0  0  0
    2.0555   -1.2911   -2.0348 C   0  0  0  0  0  4           0  0  0
   -0.6410    0.0000    1.3872 C   0  0  0  0  0  4           0  0  0
    0.0000    0.0000    0.0000 C   0  0  0  0  0  4           0  0  0
   -0.8352   -1.0973    3.6838 C   0  0  0  0  0  4           0  0  0
    2.1723    2.4685   -1.5529 C   0  0  0  0  0  4           0  0  0
    2.8255   -2.3660   -1.2746 C   0  0  0  0  0  4           0  0  0
  1  5  1  0     0  0
  2  6  1  0     0  0
  2  7  2  0     0  0
  3  8  1  0     0  0
  3 14  1  0     0  0
  4 15  1  0     0  0
  4 16  1  0     0  0
  4 17  1  0     0  0
  5 10  1  0     0  0
  5 11  2  0     0  0
  6  9  1  0     0  0
  6 10  2  0     0  0
  7 12  1  0     0  0
  8  9  1  0     0  0
  8 12  2  0     0  0
  9 13  2  0     0  0
 11 13  1  0     0  0
 14 18  1  0     0  0
 14 20  1  0     0  0
 15 19  1  0     0  0
 16 21  1  0     0  0
 17 22  1  0     0  0
 18 19  1  0     0  0
M  END
> <standard_type>
pIC50

> <# Confs.>
25

> <canonical_smiles>
CC(CCCN(CC)CC)NC1=CC=NC2=CC(Cl)=CC=C12

> <standard_relation>
=

> <Publication_ID>
nan

> <predicted_activity_value>
nan

> <actual_activity_value>
-0.3979400086720376

> <Compound>
Chloroquine

> <standard_units>
uM

> hash
16382377881588490945

$$$$
5
XXILIB    08252103503D 0   0.00000     0.00000

 22 23  0     1  0            999 V2000
   -6.1302    5.9894   -2.8461 Cl  0  0  0  0  0  1           0  0  0
   -6.2649    1.1526   -1.4656 N   0  0  0  0  0  3           0  0  0
   -2.6905    1.1811    0.7053 N   0  0  0  0  0  3           0  0  0
    2.0990   -1.1697    0.6753 N   0  0  2  0  0  3           0  0  0
   -5.4551    4.6476   -2.0054 C   0  0  0  0  0  4           0  0  0
   -5.5735    2.2995   -1.3862 C   0  0  0  0  0  4           0  0  0
   -5.8000    0.0802   -0.8005 C   0  0  0  0  0  4           0  0  0
   -3.8788    1.2595    0.0163 C   0  0  0  0  0  4           0  0  0
   -4.3693    2.4244   -0.6462 C   0  0  0  0  0  4           0  0  0
   -6.0856    3.4061   -2.0572 C   0  0  0  0  0  4           0  0  0
   -4.2955    4.8062   -1.2664 C   0  0  0  0  0  4           0  0  0
   -4.6389    0.0838   -0.0582 C   0  0  0  0  0  4           0  0  0
   -3.7652    3.7076   -0.5901 C   0  0  0  0  0  4           0  0  0
   -2.1748    0.0000    1.3872 C   0  0  1  0  0  4           0  0  0
    1.5310    0.0000    0.0000 C   0  0  0  0  0  4           0  0  0
    3.5619   -1.2158    0.7019 C   0  0  0  0  0  4           0  0  0
    1.4470   -2.4388    0.3573 C   0  0  0  0  0  4           0  0  0
   -0.6410    0.0000    1.3872 C   0  0  0  0  0  4           0  0  0
    0.0000    0.0000    0.0000 C   0  0  0  0  0  4           0  0  0
   -2.7695   -0.1330    2.7900 C   0  0  0  0  0  4           0  0  0
    4.1579   -0.0092    1.4197 C   0  0  0  0  0  4           0  0  0
    1.5189   -2.7599   -1.1319 C   0  0  0  0  0  4           0  0  0
  1  5  1  0     0  0
  2  6  1  0     0  0
  2  7  2  0     0  0
  3  8  1  0     0  0
  3 14  1  0     0  0
  4 15  1  0     0  0
  4 16  1  0     0  0
  4 17  1  0     0  0
  5 10  1  0     0  0
  5 11  2  0     0  0
  6  9  1  0     0  0
  6 10  2  0     0  0
  7 12  1  0     0  0
  8  9  1  0     0  0
  8 12  2  0     0  0
  9 13  2  0     0  0
 11 13  1  0     0  0
 14 18  1  0     0  0
 14 20  1  0     0  0
 15 19  1  0     0  0
 16 21  1  0     0  0
 17 22  1  0     0  0
 18 19  1  0     0  0
M  END
> <standard_type>
pIC50

> <# Confs.>
25

> <canonical_smiles>
CC(CCCN(CC)CC)NC1=CC=NC2=CC(Cl)=CC=C12

> <standard_relation>
=

> <Publication_ID>
nan

> <predicted_activity_value>
nan

> <actual_activity_value>
-0.3979400086720376

> <Compound>
Chloroquine

> <standard_units>
uM

> hash
16382377881588490945

$$$$
5
XXILIB    08252103503D 0   0.00000     0.00000

 22 23  0     1  0            999 V2000
   -3.7568    5.2953   -4.7261 Cl  0  0  0  0  0  1           0  0  0
   -5.1174    0.9002   -2.6889 N   0  0  0  0  0  3           0  0  0
   -2.6905    1.1811    0.7053 N   0  0  0  0  0  3           0  0  0
    2.0990    0.0000   -1.3507 N   0  0  2  0  0  3           0  0  0
   -3.6609    4.1320   -3.4610 C   0  0  0  0  0  4           0  0  0
   -4.3502    1.9904   -2.5393 C   0  0  0  0  0  4           0  0  0
   -5.1063   -0.0264   -1.7143 C   0  0  0  0  0  4           0  0  0
   -3.4971    1.1805   -0.4094 C   0  0  0  0  0  4           0  0  0
   -3.5191    2.1992   -1.4084 C   0  0  0  0  0  4           0  0  0
   -4.3971    2.9519   -3.5445 C   0  0  0  0  0  4           0  0  0
   -2.8651    4.3761   -2.3551 C   0  0  0  0  0  4           0  0  0
   -4.3330    0.0676   -0.5775 C   0  0  0  0  0  4           0  0  0
   -2.8024    3.4225   -1.3391 C   0  0  0  0  0  4           0  0  0
   -2.1748   -0.0000    1.3872 C   0  0  1  0  0  4           0  0  0
    1.5310    0.0000   -0.0000 C   0  0  0  0  0  4           0  0  0
    1.7258    1.1500   -2.1760 C   0  0  0  0  0  4           0  0  0
    2.0555   -1.2911   -2.0348 C   0  0  0  0  0  4           0  0  0
   -0.6410    0.0000    1.3872 C   0  0  0  0  0  4           0  0  0
    0.0000   -0.0000    0.0000 C   0  0  0  0  0  4           0  0  0
   -2.7695   -0.1330    2.7900 C   0  0  0  0  0  4           0  0  0
    2.1723    2.4685   -1.5529 C   0  0  0  0  0  4           0  0  0
    2.8255   -2.3660   -1.2746 C   0  0  0  0  0  4           0  0  0
  1  5  1  0     0  0
  2  6  1  0     0  0
  2  7  2  0     0  0
  3  8  1  0     0  0
  3 14  1  0     0  0
  4 15  1  0     0  0
  4 16  1  0     0  0
  4 17  1  0     0  0
  5 10  1  0     0  0
  5 11  2  0     0  0
  6  9  1  0     0  0
  6 10  2  0     0  0
  7 12  1  0     0  0
  8  9  1  0     0  0
  8 12  2  0     0  0
  9 13  2  0     0  0
 11 13  1  0     0  0
 14 18  1  0     0  0
 14 20  1  0     0  0
 15 19  1  0     0  0
 16 21  1  0     0  0
 17 22  1  0     0  0
 18 19  1  0     0  0
M  END
> <standard_type>
pIC50

> <# Confs.>
25

> <canonical_smiles>
CC(CCCN(CC)CC)NC1=CC=NC2=CC(Cl)=CC=C12

> <standard_relation>
=

> <Publication_ID>
nan

> <predicted_activity_value>
nan

> <actual_activity_value>
-0.3979400086720376

> <Compound>
Chloroquine

> <standard_units>
uM

> hash
16382377881588490945

$$$$
5
XXILIB    08252103503D 0   0.00000     0.00000

 22 23  0     1  0            999 V2000
   -1.6358   -8.8479   -0.7694 Cl  0  0  0  0  0  1           0  0  0
    1.4100   -6.0338    2.0807 N   0  0  0  0  0  3           0  0  0
   -0.6962   -2.4494    1.6268 N   0  0  0  0  0  3           0  0  0
    2.0990    0.0000   -1.3507 N   0  0  2  0  0  3           0  0  0
   -1.2205   -7.3408   -0.0487 C   0  0  0  0  0  4           0  0  0
    0.2998   -6.0349    1.3277 C   0  0  0  0  0  4           0  0  0
    1.7635   -4.8906    2.6944 C   0  0  0  0  0  4           0  0  0
   -0.0837   -3.6732    1.7699 C   0  0  0  0  0  4           0  0  0
   -0.5054   -4.8819    1.1393 C   0  0  0  0  0  4           0  0  0
   -0.0660   -7.2346    0.7242 C   0  0  0  0  0  4           0  0  0
   -2.0410   -6.2401   -0.2246 C   0  0  0  0  0  4           0  0  0
    1.0625   -3.7100    2.5762 C   0  0  0  0  0  4           0  0  0
   -1.6888   -5.0281    0.3694 C   0  0  0  0  0  4           0  0  0
   -0.2789   -1.2058    2.2633 C   0  0  1  0  0  4           0  0  0
    1.5310    0.0000   -0.0000 C   0  0  0  0  0  4           0  0  0
    1.7258    1.1500   -2.1760 C   0  0  0  0  0  4           0  0  0
    2.0555   -1.2911   -2.0348 C   0  0  0  0  0  4           0  0  0
   -0.6410   -0.0000    1.3872 C   0  0  0  0  0  4           0  0  0
    0.0000    0.0000    0.0000 C   0  0  0  0  0  4           0  0  0
   -0.8352   -1.0973    3.6838 C   0  0  0  0  0  4           0  0  0
    2.1723    2.4685   -1.5529 C   0  0  0  0  0  4           0  0  0
    2.8255   -2.3660   -1.2746 C   0  0  0  0  0  4           0  0  0
  1  5  1  0     0  0
  2  6  1  0     0  0
  2  7  2  0     0  0
  3  8  1  0     0  0
  3 14  1  0     0  0
  4 15  1  0     0  0
  4 16  1  0     0  0
  4 17  1  0     0  0
  5 10  1  0     0  0
  5 11  2  0     0  0
  6  9  1  0     0  0
  6 10  2  0     0  0
  7 12  1  0     0  0
  8  9  1  0     0  0
  8 12  2  0     0  0
  9 13  2  0     0  0
 11 13  1  0     0  0
 14 18  1  0     0  0
 14 20  1  0     0  0
 15 19  1  0     0  0
 16 21  1  0     0  0
 17 22  1  0     0  0
 18 19  1  0     0  0
M  END
> <standard_type>
pIC50

> <# Confs.>
25

> <canonical_smiles>
CC(CCCN(CC)CC)NC1=CC=NC2=CC(Cl)=CC=C12

> <standard_relation>
=

> <Publication_ID>
nan

> <predicted_activity_value>
nan

> <actual_activity_value>
-0.3979400086720376

> <Compound>
Chloroquine

> <standard_units>
uM

> hash
16382377881588490945

$$$$
5
XXILIB    08252103503D 0   0.00000     0.00000

 22 23  0     1  0            999 V2000
   -3.7568    5.2953   -4.7261 Cl  0  0  0  0  0  1           0  0  0
   -5.1174    0.9002   -2.6889 N   0  0  0  0  0  3           0  0  0
   -2.6905    1.1811    0.7053 N   0  0  0  0  0  3           0  0  0
    2.0990    1.1697    0.6753 N   0  0  2  0  0  3           0  0  0
   -3.6609    4.1320   -3.4610 C   0  0  0  0  0  4           0  0  0
   -4.3502    1.9904   -2.5393 C   0  0  0  0  0  4           0  0  0
   -5.1063   -0.0264   -1.7143 C   0  0  0  0  0  4           0  0  0
   -3.4971    1.1805   -0.4094 C   0  0  0  0  0  4           0  0  0
   -3.5191    2.1992   -1.4084 C   0  0  0  0  0  4           0  0  0
   -4.3971    2.9519   -3.5445 C   0  0  0  0  0  4           0  0  0
   -2.8651    4.3761   -2.3551 C   0  0  0  0  0  4           0  0  0
   -4.3330    0.0676   -0.5775 C   0  0  0  0  0  4           0  0  0
   -2.8024    3.4225   -1.3391 C   0  0  0  0  0  4           0  0  0
   -2.1748   -0.0000    1.3872 C   0  0  1  0  0  4           0  0  0
    1.5310    0.0000    0.0000 C   0  0  0  0  0  4           0  0  0
    1.7258    2.4595    0.0921 C   0  0  0  0  0  4           0  0  0
    3.5084    1.0425    1.0420 C   0  0  0  0  0  4           0  0  0
   -0.6410    0.0000    1.3872 C   0  0  0  0  0  4           0  0  0
    0.0000   -0.0000    0.0000 C   0  0  0  0  0  4           0  0  0
   -2.7695   -0.1330    2.7900 C   0  0  0  0  0  4           0  0  0
    2.1723    2.5791   -1.3613 C   0  0  0  0  0  4           0  0  0
    3.7475   -0.1262    1.9923 C   0  0  0  0  0  4           0  0  0
  1  5  1  0     0  0
  2  6  1  0     0  0
  2  7  2  0     0  0
  3  8  1  0     0  0
  3 14  1  0     0  0
  4 15  1  0     0  0
  4 16  1  0     0  0
  4 17  1  0     0  0
  5 10  1  0     0  0
  5 11  2  0     0  0
  6  9  1  0     0  0
  6 10  2  0     0  0
  7 12  1  0     0  0
  8  9  1  0     0  0
  8 12  2  0     0  0
  9 13  2  0     0  0
 11 13  1  0     0  0
 14 18  1  0     0  0
 14 20  1  0     0  0
 15 19  1  0     0  0
 16 21  1  0     0  0
 17 22  1  0     0  0
 18 19  1  0     0  0
M  END
> <standard_type>
pIC50

> <# Confs.>
25

> <canonical_smiles>
CC(CCCN(CC)CC)NC1=CC=NC2=CC(Cl)=CC=C12

> <standard_relation>
=

> <Publication_ID>
nan

> <predicted_activity_value>
nan

> <actual_activity_value>
-0.3979400086720376

> <Compound>
Chloroquine

> <standard_units>
uM

> hash
16382377881588490945

$$$$
5
XXILIB    08252103503D 0   0.00000     0.00000

 22 23  0     1  0            999 V2000
   -2.3375    3.0650   10.0271 Cl  0  0  0  0  0  1           0  0  0
    1.0951    0.7161    7.1955 N   0  0  0  0  0  3           0  0  0
   -0.9361    1.1158    3.5617 N   0  0  0  0  0  3           0  0  0
    2.0990   -1.1697    0.6753 N   0  0  2  0  0  3           0  0  0
   -1.7794    2.5058    8.4977 C   0  0  0  0  0  4           0  0  0
   -0.0885    1.3473    7.1901 C   0  0  0  0  0  4           0  0  0
    1.5946    0.2869    6.0229 C   0  0  0  0  0  4           0  0  0
   -0.3045    1.0648    4.7830 C   0  0  0  0  0  4           0  0  0
   -0.8402    1.5666    6.0068 C   0  0  0  0  0  4           0  0  0
   -0.5754    1.8100    8.4091 C   0  0  0  0  0  4           0  0  0
   -2.5188    2.7607    7.3557 C   0  0  0  0  0  4           0  0  0
    0.9489    0.4376    4.8147 C   0  0  0  0  0  4           0  0  0
   -2.0487    2.3016    6.1253 C   0  0  0  0  0  4           0  0  0
   -0.2789    1.2058    2.2633 C   0  0  1  0  0  4           0  0  0
    1.5310    0.0000    0.0000 C   0  0  0  0  0  4           0  0  0
    3.5619   -1.2158    0.7019 C   0  0  0  0  0  4           0  0  0
    1.4470   -2.4388    0.3573 C   0  0  0  0  0  4           0  0  0
   -0.6410    0.0000    1.3872 C   0  0  0  0  0  4           0  0  0
    0.0000    0.0000    0.0000 C   0  0  0  0  0  4           0  0  0
   -0.5749    2.5441    1.5848 C   0  0  0  0  0  4           0  0  0
    4.1579   -0.0092    1.4197 C   0  0  0  0  0  4           0  0  0
    1.5189   -2.7599   -1.1319 C   0  0  0  0  0  4           0  0  0
  1  5  1  0     0  0
  2  6  1  0     0  0
  2  7  2  0     0  0
  3  8  1  0     0  0
  3 14  1  0     0  0
  4 15  1  0     0  0
  4 16  1  0     0  0
  4 17  1  0     0  0
  5 10  1  0     0  0
  5 11  2  0     0  0
  6  9  1  0     0  0
  6 10  2  0     0  0
  7 12  1  0     0  0
  8  9  1  0     0  0
  8 12  2  0     0  0
  9 13  2  0     0  0
 11 13  1  0     0  0
 14 18  1  0     0  0
 14 20  1  0     0  0
 15 19  1  0     0  0
 16 21  1  0     0  0
 17 22  1  0     0  0
 18 19  1  0     0  0
M  END
> <standard_type>
pIC50

> <# Confs.>
25

> <canonical_smiles>
CC(CCCN(CC)CC)NC1=CC=NC2=CC(Cl)=CC=C12

> <standard_relation>
=

> <Publication_ID>
nan

> <predicted_activity_value>
nan

> <actual_activity_value>
-0.3979400086720376

> <Compound>
Chloroquine

> <standard_units>
uM

> hash
16382377881588490945

$$$$
5
XXILIB    08252103503D 0   0.00000     0.00000

 22 23  0     1  0            999 V2000
   -2.1849   -7.2654   -2.5026 Cl  0  0  0  0  0  1           0  0  0
   -1.8012   -5.0564    2.0020 N   0  0  0  0  0  3           0  0  0
   -2.6905   -1.1811    0.7053 N   0  0  0  0  0  3           0  0  0
    2.0990    0.0000   -1.3507 N   0  0  2  0  0  3           0  0  0
   -2.2761   -5.8676   -1.5020 C   0  0  0  0  0  4           0  0  0
   -2.0600   -4.8607    0.7004 C   0  0  0  0  0  4           0  0  0
   -1.8901   -4.0046    2.8353 C   0  0  0  0  0  4           0  0  0
   -2.4541   -2.4877    1.0661 C   0  0  0  0  0  4           0  0  0
   -2.4067   -3.5933    0.1651 C   0  0  0  0  0  4           0  0  0
   -1.9915   -5.9668   -0.1416 C   0  0  0  0  0  4           0  0  0
   -2.6466   -4.6500   -2.0460 C   0  0  0  0  0  4           0  0  0
   -2.2101   -2.7282    2.4255 C   0  0  0  0  0  4           0  0  0
   -2.7172   -3.5293   -1.2185 C   0  0  0  0  0  4           0  0  0
   -2.1748    0.0000    1.3872 C   0  0  1  0  0  4           0  0  0
    1.5310   -0.0000   -0.0000 C   0  0  0  0  0  4           0  0  0
    3.5619    0.0000   -1.4038 C   0  0  0  0  0  4           0  0  0
    1.4470    0.9100   -2.2907 C   0  0  0  0  0  4           0  0  0
   -0.6410    0.0000    1.3872 C   0  0  0  0  0  4           0  0  0
    0.0000    0.0000    0.0000 C   0  0  0  0  0  4           0  0  0
   -2.7695    1.2813    0.8010 C   0  0  0  0  0  4           0  0  0
    4.1579   -1.2249   -0.7178 C   0  0  0  0  0  4           0  0  0
    1.5189    2.3602   -1.8241 C   0  0  0  0  0  4           0  0  0
  1  5  1  0     0  0
  2  6  1  0     0  0
  2  7  2  0     0  0
  3  8  1  0     0  0
  3 14  1  0     0  0
  4 15  1  0     0  0
  4 16  1  0     0  0
  4 17  1  0     0  0
  5 10  1  0     0  0
  5 11  2  0     0  0
  6  9  1  0     0  0
  6 10  2  0     0  0
  7 12  1  0     0  0
  8  9  1  0     0  0
  8 12  2  0     0  0
  9 13  2  0     0  0
 11 13  1  0     0  0
 14 18  1  0     0  0
 14 20  1  0     0  0
 15 19  1  0     0  0
 16 21  1  0     0  0
 17 22  1  0     0  0
 18 19  1  0     0  0
M  END
> <standard_type>
pIC50

> <# Confs.>
25

> <canonical_smiles>
CC(CCCN(CC)CC)NC1=CC=NC2=CC(Cl)=CC=C12

> <standard_relation>
=

> <Publication_ID>
nan

> <predicted_activity_value>
nan

> <actual_activity_value>
-0.3979400086720376

> <Compound>
Chloroquine

> <standard_units>
uM

> hash
16382377881588490945

$$$$
5
XXILIB    08252103503D 0   0.00000     0.00000

 22 23  0     1  0            999 V2000
   -7.5848    5.2464   -1.9562 Cl  0  0  0  0  0  1           0  0  0
   -4.9312    1.0601   -2.8237 N   0  0  0  0  0  3           0  0  0
   -2.6905    1.1811    0.7053 N   0  0  0  0  0  3           0  0  0
    2.0990   -1.1697    0.6753 N   0  0  2  0  0  3           0  0  0
   -6.4034    4.0899   -1.4765 C   0  0  0  0  0  4           0  0  0
   -5.1450    2.0677   -1.9642 C   0  0  0  0  0  4           0  0  0
   -4.0420    0.1100   -2.4845 C   0  0  0  0  0  4           0  0  0
   -3.4971    1.1805   -0.4094 C   0  0  0  0  0  4           0  0  0
   -4.4641    2.1814   -0.7246 C   0  0  0  0  0  4           0  0  0
   -6.0900    3.0257   -2.3195 C   0  0  0  0  0  4           0  0  0
   -5.7770    4.2092   -0.2480 C   0  0  0  0  0  4           0  0  0
   -3.3180    0.1228   -1.3120 C   0  0  0  0  0  4           0  0  0
   -4.8243    3.2608    0.1239 C   0  0  0  0  0  4           0  0  0
   -2.1748   -0.0000    1.3872 C   0  0  1  0  0  4           0  0  0
    1.5310    0.0000    0.0000 C   0  0  0  0  0  4           0  0  0
    3.5619   -1.2158    0.7019 C   0  0  0  0  0  4           0  0  0
    1.4470   -2.4388    0.3573 C   0  0  0  0  0  4           0  0  0
   -0.6410    0.0000    1.3872 C   0  0  0  0  0  4           0  0  0
    0.0000   -0.0000    0.0000 C   0  0  0  0  0  4           0  0  0
   -2.7695   -0.1330    2.7900 C   0  0  0  0  0  4           0  0  0
    4.1579   -0.0092    1.4197 C   0  0  0  0  0  4           0  0  0
    1.5189   -2.7599   -1.1319 C   0  0  0  0  0  4           0  0  0
  1  5  1  0     0  0
  2  6  1  0     0  0
  2  7  2  0     0  0
  3  8  1  0     0  0
  3 14  1  0     0  0
  4 15  1  0     0  0
  4 16  1  0     0  0
  4 17  1  0     0  0
  5 10  1  0     0  0
  5 11  2  0     0  0
  6  9  1  0     0  0
  6 10  2  0     0  0
  7 12  1  0     0  0
  8  9  1  0     0  0
  8 12  2  0     0  0
  9 13  2  0     0  0
 11 13  1  0     0  0
 14 18  1  0     0  0
 14 20  1  0     0  0
 15 19  1  0     0  0
 16 21  1  0     0  0
 17 22  1  0     0  0
 18 19  1  0     0  0
M  END
> <standard_type>
pIC50

> <# Confs.>
25

> <canonical_smiles>
CC(CCCN(CC)CC)NC1=CC=NC2=CC(Cl)=CC=C12

> <standard_relation>
=

> <Publication_ID>
nan

> <predicted_activity_value>
nan

> <actual_activity_value>
-0.3979400086720376

> <Compound>
Chloroquine

> <standard_units>
uM

> hash
16382377881588490945

$$$$
5
XXILIB    08252103503D 0   0.00000     0.00000

 22 23  0     1  0            999 V2000
   -1.6358   -8.8479   -0.7694 Cl  0  0  0  0  0  1           0  0  0
    1.4100   -6.0338    2.0807 N   0  0  0  0  0  3           0  0  0
   -0.6962   -2.4494    1.6268 N   0  0  0  0  0  3           0  0  0
    2.0990    0.0000   -1.3507 N   0  0  2  0  0  3           0  0  0
   -1.2205   -7.3408   -0.0487 C   0  0  0  0  0  4           0  0  0
    0.2998   -6.0349    1.3277 C   0  0  0  0  0  4           0  0  0
    1.7635   -4.8906    2.6944 C   0  0  0  0  0  4           0  0  0
   -0.0837   -3.6732    1.7699 C   0  0  0  0  0  4           0  0  0
   -0.5054   -4.8819    1.1393 C   0  0  0  0  0  4           0  0  0
   -0.0660   -7.2346    0.7242 C   0  0  0  0  0  4           0  0  0
   -2.0410   -6.2401   -0.2246 C   0  0  0  0  0  4           0  0  0
    1.0625   -3.7100    2.5762 C   0  0  0  0  0  4           0  0  0
   -1.6888   -5.0281    0.3694 C   0  0  0  0  0  4           0  0  0
   -0.2789   -1.2058    2.2633 C   0  0  1  0  0  4           0  0  0
    1.5310   -0.0000   -0.0000 C   0  0  0  0  0  4           0  0  0
    3.5619    0.0000   -1.4038 C   0  0  0  0  0  4           0  0  0
    1.4470    0.9100   -2.2907 C   0  0  0  0  0  4           0  0  0
   -0.6410   -0.0000    1.3872 C   0  0  0  0  0  4           0  0  0
    0.0000    0.0000    0.0000 C   0  0  0  0  0  4           0  0  0
   -0.8352   -1.0973    3.6838 C   0  0  0  0  0  4           0  0  0
    4.1579   -1.2249   -0.7178 C   0  0  0  0  0  4           0  0  0
    1.5189    2.3602   -1.8241 C   0  0  0  0  0  4           0  0  0
  1  5  1  0     0  0
  2  6  1  0     0  0
  2  7  2  0     0  0
  3  8  1  0     0  0
  3 14  1  0     0  0
  4 15  1  0     0  0
  4 16  1  0     0  0
  4 17  1  0     0  0
  5 10  1  0     0  0
  5 11  2  0     0  0
  6  9  1  0     0  0
  6 10  2  0     0  0
  7 12  1  0     0  0
  8  9  1  0     0  0
  8 12  2  0     0  0
  9 13  2  0     0  0
 11 13  1  0     0  0
 14 18  1  0     0  0
 14 20  1  0     0  0
 15 19  1  0     0  0
 16 21  1  0     0  0
 17 22  1  0     0  0
 18 19  1  0     0  0
M  END
> <standard_type>
pIC50

> <# Confs.>
25

> <canonical_smiles>
CC(CCCN(CC)CC)NC1=CC=NC2=CC(Cl)=CC=C12

> <standard_relation>
=

> <Publication_ID>
nan

> <predicted_activity_value>
nan

> <actual_activity_value>
-0.3979400086720376

> <Compound>
Chloroquine

> <standard_units>
uM

> hash
16382377881588490945

$$$$
5
XXILIB    08252103503D 0   0.00000     0.00000

 22 23  0     1  0            999 V2000
   -2.6085   -9.0737    1.4636 Cl  0  0  0  0  0  1           0  0  0
    1.3922   -6.0593    1.9392 N   0  0  0  0  0  3           0  0  0
   -0.6962   -2.4494    1.6268 N   0  0  0  0  0  3           0  0  0
    2.0990    1.1697    0.6753 N   0  0  2  0  0  3           0  0  0
   -1.9145   -7.5010    1.5525 C   0  0  0  0  0  4           0  0  0
    0.0617   -6.1020    1.7730 C   0  0  0  0  0  4           0  0  0
    1.9832   -4.8562    2.0479 C   0  0  0  0  0  4           0  0  0
   -0.0837   -3.6732    1.7699 C   0  0  0  0  0  4           0  0  0
   -0.7431   -4.9363    1.6917 C   0  0  0  0  0  4           0  0  0
   -0.5356   -7.3565    1.6918 C   0  0  0  0  0  4           0  0  0
   -2.7273   -6.3818    1.5010 C   0  0  0  0  0  4           0  0  0
    1.3030   -3.6598    1.9753 C   0  0  0  0  0  4           0  0  0
   -2.1465   -5.1160    1.5771 C   0  0  0  0  0  4           0  0  0
   -0.2789   -1.2058    2.2633 C   0  0  1  0  0  4           0  0  0
    1.5310    0.0000    0.0000 C   0  0  0  0  0  4           0  0  0
    1.7258    2.4595    0.0921 C   0  0  0  0  0  4           0  0  0
    3.5084    1.0425    1.0420 C   0  0  0  0  0  4           0  0  0
   -0.6410   -0.0000    1.3872 C   0  0  0  0  0  4           0  0  0
    0.0000    0.0000    0.0000 C   0  0  0  0  0  4           0  0  0
   -0.8352   -1.0973    3.6838 C   0  0  0  0  0  4           0  0  0
    2.1723    2.5791   -1.3613 C   0  0  0  0  0  4           0  0  0
    3.7475   -0.1262    1.9923 C   0  0  0  0  0  4           0  0  0
  1  5  1  0     0  0
  2  6  1  0     0  0
  2  7  2  0     0  0
  3  8  1  0     0  0
  3 14  1  0     0  0
  4 15  1  0     0  0
  4 16  1  0     0  0
  4 17  1  0     0  0
  5 10  1  0     0  0
  5 11  2  0     0  0
  6  9  1  0     0  0
  6 10  2  0     0  0
  7 12  1  0     0  0
  8  9  1  0     0  0
  8 12  2  0     0  0
  9 13  2  0     0  0
 11 13  1  0     0  0
 14 18  1  0     0  0
 14 20  1  0     0  0
 15 19  1  0     0  0
 16 21  1  0     0  0
 17 22  1  0     0  0
 18 19  1  0     0  0
M  END
> <standard_type>
pIC50

> <# Confs.>
25

> <canonical_smiles>
CC(CCCN(CC)CC)NC1=CC=NC2=CC(Cl)=CC=C12

> <standard_relation>
=

> <Publication_ID>
nan

> <predicted_activity_value>
nan

> <actual_activity_value>
-0.3979400086720376

> <Compound>
Chloroquine

> <standard_units>
uM

> hash
16382377881588490945

$$$$
5
XXILIB    08252103503D 0   0.00000     0.00000

 22 23  0     1  0            999 V2000
   -3.9689   -8.5086    1.2512 Cl  0  0  0  0  0  1           0  0  0
    0.1014   -6.2548    3.1674 N   0  0  0  0  0  3           0  0  0
   -0.6962   -2.4494    1.6268 N   0  0  0  0  0  3           0  0  0
    2.0990    1.1697    0.6753 N   0  0  2  0  0  3           0  0  0
   -3.0019   -7.1049    1.4915 C   0  0  0  0  0  4           0  0  0
   -1.0080   -6.0811    2.4336 C   0  0  0  0  0  4           0  0  0
    0.8771   -5.1843    3.4141 C   0  0  0  0  0  4           0  0  0
   -0.5248   -3.7146    2.1399 C   0  0  0  0  0  4           0  0  0
   -1.3880   -4.8243    1.8957 C   0  0  0  0  0  4           0  0  0
   -1.8135   -7.1946    2.2134 C   0  0  0  0  0  4           0  0  0
   -3.4129   -5.8857    0.9810 C   0  0  0  0  0  4           0  0  0
    0.6105   -3.9193    2.9365 C   0  0  0  0  0  4           0  0  0
   -2.6169   -4.7592    1.1883 C   0  0  0  0  0  4           0  0  0
   -0.2789   -1.2058    2.2633 C   0  0  1  0  0  4           0  0  0
    1.5310    0.0000    0.0000 C   0  0  0  0  0  4           0  0  0
    1.7258    2.4595    0.0921 C   0  0  0  0  0  4           0  0  0
    3.5084    1.0425    1.0420 C   0  0  0  0  0  4           0  0  0
   -0.6410   -0.0000    1.3872 C   0  0  0  0  0  4           0  0  0
    0.0000    0.0000    0.0000 C   0  0  0  0  0  4           0  0  0
   -0.8352   -1.0973    3.6838 C   0  0  0  0  0  4           0  0  0
    2.1723    2.5791   -1.3613 C   0  0  0  0  0  4           0  0  0
    4.0318    2.2939    1.7393 C   0  0  0  0  0  4           0  0  0
  1  5  1  0     0  0
  2  6  1  0     0  0
  2  7  2  0     0  0
  3  8  1  0     0  0
  3 14  1  0     0  0
  4 15  1  0     0  0
  4 16  1  0     0  0
  4 17  1  0     0  0
  5 10  1  0     0  0
  5 11  2  0     0  0
  6  9  1  0     0  0
  6 10  2  0     0  0
  7 12  1  0     0  0
  8  9  1  0     0  0
  8 12  2  0     0  0
  9 13  2  0     0  0
 11 13  1  0     0  0
 14 18  1  0     0  0
 14 20  1  0     0  0
 15 19  1  0     0  0
 16 21  1  0     0  0
 17 22  1  0     0  0
 18 19  1  0     0  0
M  END
> <standard_type>
pIC50

> <# Confs.>
25

> <canonical_smiles>
CC(CCCN(CC)CC)NC1=CC=NC2=CC(Cl)=CC=C12

> <standard_relation>
=

> <Publication_ID>
nan

> <predicted_activity_value>
nan

> <actual_activity_value>
-0.3979400086720376

> <Compound>
Chloroquine

> <standard_units>
uM

> hash
16382377881588490945

$$$$
5
XXILIB    08252103503D 0   0.00000     0.00000

 22 23  0     1  0            999 V2000
   -7.3535    6.0559   -0.7289 Cl  0  0  0  0  0  1           0  0  0
   -6.1998    1.2308   -1.5689 N   0  0  0  0  0  3           0  0  0
   -2.6905    1.1811    0.7053 N   0  0  0  0  0  3           0  0  0
    2.0990    0.0000   -1.3507 N   0  0  2  0  0  3           0  0  0
   -6.3317    4.6916   -0.4886 C   0  0  0  0  0  4           0  0  0
   -5.8244    2.3584   -0.9468 C   0  0  0  0  0  4           0  0  0
   -5.4556    0.1251   -1.3894 C   0  0  0  0  0  4           0  0  0
   -3.8788    1.2595    0.0163 C   0  0  0  0  0  4           0  0  0
   -4.6715    2.4379   -0.1235 C   0  0  0  0  0  4           0  0  0
   -6.6232    3.4848   -1.1211 C   0  0  0  0  0  4           0  0  0
   -5.2306    4.7898    0.3444 C   0  0  0  0  0  4           0  0  0
   -4.3131    0.0880   -0.6197 C   0  0  0  0  0  4           0  0  0
   -4.4160    3.6725    0.5284 C   0  0  0  0  0  4           0  0  0
   -2.1748    0.0000    1.3872 C   0  0  1  0  0  4           0  0  0
    1.5310   -0.0000   -0.0000 C   0  0  0  0  0  4           0  0  0
    3.5619    0.0000   -1.4038 C   0  0  0  0  0  4           0  0  0
    1.4470    0.9100   -2.2907 C   0  0  0  0  0  4           0  0  0
   -0.6410    0.0000    1.3872 C   0  0  0  0  0  4           0  0  0
    0.0000    0.0000    0.0000 C   0  0  0  0  0  4           0  0  0
   -2.7695   -0.1330    2.7900 C   0  0  0  0  0  4           0  0  0
    4.1579   -1.2249   -0.7178 C   0  0  0  0  0  4           0  0  0
    1.5189    2.3602   -1.8241 C   0  0  0  0  0  4           0  0  0
  1  5  1  0     0  0
  2  6  1  0     0  0
  2  7  2  0     0  0
  3  8  1  0     0  0
  3 14  1  0     0  0
  4 15  1  0     0  0
  4 16  1  0     0  0
  4 17  1  0     0  0
  5 10  1  0     0  0
  5 11  2  0     0  0
  6  9  1  0     0  0
  6 10  2  0     0  0
  7 12  1  0     0  0
  8  9  1  0     0  0
  8 12  2  0     0  0
  9 13  2  0     0  0
 11 13  1  0     0  0
 14 18  1  0     0  0
 14 20  1  0     0  0
 15 19  1  0     0  0
 16 21  1  0     0  0
 17 22  1  0     0  0
 18 19  1  0     0  0
M  END
> <standard_type>
pIC50

> <# Confs.>
25

> <canonical_smiles>
CC(CCCN(CC)CC)NC1=CC=NC2=CC(Cl)=CC=C12

> <standard_relation>
=

> <Publication_ID>
nan

> <predicted_activity_value>
nan

> <actual_activity_value>
-0.3979400086720376

> <Compound>
Chloroquine

> <standard_units>
uM

> hash
16382377881588490945

$$$$
5
XXILIB    08252103503D 0   0.00000     0.00000

 22 23  0     1  0            999 V2000
   -3.7568   -7.9420   -0.1420 Cl  0  0  0  0  0  1           0  0  0
   -5.1174   -3.9802    2.6458 N   0  0  0  0  0  3           0  0  0
   -2.6905   -1.1811    0.7053 N   0  0  0  0  0  3           0  0  0
    2.0990    0.0000   -1.3507 N   0  0  2  0  0  3           0  0  0
   -3.6609   -6.2647    0.2330 C   0  0  0  0  0  4           0  0  0
   -4.3502   -4.3957    1.6268 C   0  0  0  0  0  4           0  0  0
   -5.1063   -2.6729    2.9609 C   0  0  0  0  0  4           0  0  0
   -3.4971   -2.1461    1.2632 C   0  0  0  0  0  4           0  0  0
   -3.5191   -3.5207    0.8805 C   0  0  0  0  0  4           0  0  0
   -4.3971   -5.7469    1.2967 C   0  0  0  0  0  4           0  0  0
   -2.8651   -5.4290   -0.5314 C   0  0  0  0  0  4           0  0  0
   -4.3330   -1.7353    2.3111 C   0  0  0  0  0  4           0  0  0
   -2.8024   -4.0723   -0.2135 C   0  0  0  0  0  4           0  0  0
   -2.1748    0.0000    1.3872 C   0  0  1  0  0  4           0  0  0
    1.5310   -0.0000   -0.0000 C   0  0  0  0  0  4           0  0  0
    3.5619    0.0000   -1.4038 C   0  0  0  0  0  4           0  0  0
    1.4470    0.9100   -2.2907 C   0  0  0  0  0  4           0  0  0
   -0.6410    0.0000    1.3872 C   0  0  0  0  0  4           0  0  0
    0.0000    0.0000    0.0000 C   0  0  0  0  0  4           0  0  0
   -2.7695    1.2813    0.8010 C   0  0  0  0  0  4           0  0  0
    4.1579   -1.2249   -0.7178 C   0  0  0  0  0  4           0  0  0
    1.5189    2.3602   -1.8241 C   0  0  0  0  0  4           0  0  0
  1  5  1  0     0  0
  2  6  1  0     0  0
  2  7  2  0     0  0
  3  8  1  0     0  0
  3 14  1  0     0  0
  4 15  1  0     0  0
  4 16  1  0     0  0
  4 17  1  0     0  0
  5 10  1  0     0  0
  5 11  2  0     0  0
  6  9  1  0     0  0
  6 10  2  0     0  0
  7 12  1  0     0  0
  8  9  1  0     0  0
  8 12  2  0     0  0
  9 13  2  0     0  0
 11 13  1  0     0  0
 14 18  1  0     0  0
 14 20  1  0     0  0
 15 19  1  0     0  0
 16 21  1  0     0  0
 17 22  1  0     0  0
 18 19  1  0     0  0
M  END
> <standard_type>
pIC50

> <# Confs.>
25

> <canonical_smiles>
CC(CCCN(CC)CC)NC1=CC=NC2=CC(Cl)=CC=C12

> <standard_relation>
=

> <Publication_ID>
nan

> <predicted_activity_value>
nan

> <actual_activity_value>
-0.3979400086720376

> <Compound>
Chloroquine

> <standard_units>
uM

> hash
16382377881588490945

$$$$
5
XXILIB    08252103503D 0   0.00000     0.00000

 22 23  0     1  0            999 V2000
   -2.1849   -7.2654   -2.5026 Cl  0  0  0  0  0  1           0  0  0
   -1.8012   -5.0564    2.0020 N   0  0  0  0  0  3           0  0  0
   -2.6905   -1.1811    0.7053 N   0  0  0  0  0  3           0  0  0
    2.0990    0.0000   -1.3507 N   0  0  2  0  0  3           0  0  0
   -2.2761   -5.8676   -1.5020 C   0  0  0  0  0  4           0  0  0
   -2.0600   -4.8607    0.7004 C   0  0  0  0  0  4           0  0  0
   -1.8901   -4.0046    2.8353 C   0  0  0  0  0  4           0  0  0
   -2.4541   -2.4877    1.0661 C   0  0  0  0  0  4           0  0  0
   -2.4067   -3.5933    0.1651 C   0  0  0  0  0  4           0  0  0
   -1.9915   -5.9668   -0.1416 C   0  0  0  0  0  4           0  0  0
   -2.6466   -4.6500   -2.0460 C   0  0  0  0  0  4           0  0  0
   -2.2101   -2.7282    2.4255 C   0  0  0  0  0  4           0  0  0
   -2.7172   -3.5293   -1.2185 C   0  0  0  0  0  4           0  0  0
   -2.1748    0.0000    1.3872 C   0  0  1  0  0  4           0  0  0
    1.5310    0.0000   -0.0000 C   0  0  0  0  0  4           0  0  0
    1.7258    1.1500   -2.1760 C   0  0  0  0  0  4           0  0  0
    2.0555   -1.2911   -2.0348 C   0  0  0  0  0  4           0  0  0
   -0.6410    0.0000    1.3872 C   0  0  0  0  0  4           0  0  0
    0.0000    0.0000    0.0000 C   0  0  0  0  0  4           0  0  0
   -2.7695    1.2813    0.8010 C   0  0  0  0  0  4           0  0  0
    2.1723    2.4685   -1.5529 C   0  0  0  0  0  4           0  0  0
    2.8255   -2.3660   -1.2746 C   0  0  0  0  0  4           0  0  0
  1  5  1  0     0  0
  2  6  1  0     0  0
  2  7  2  0     0  0
  3  8  1  0     0  0
  3 14  1  0     0  0
  4 15  1  0     0  0
  4 16  1  0     0  0
  4 17  1  0     0  0
  5 10  1  0     0  0
  5 11  2  0     0  0
  6  9  1  0     0  0
  6 10  2  0     0  0
  7 12  1  0     0  0
  8  9  1  0     0  0
  8 12  2  0     0  0
  9 13  2  0     0  0
 11 13  1  0     0  0
 14 18  1  0     0  0
 14 20  1  0     0  0
 15 19  1  0     0  0
 16 21  1  0     0  0
 17 22  1  0     0  0
 18 19  1  0     0  0
M  END
> <standard_type>
pIC50

> <# Confs.>
25

> <canonical_smiles>
CC(CCCN(CC)CC)NC1=CC=NC2=CC(Cl)=CC=C12

> <standard_relation>
=

> <Publication_ID>
nan

> <predicted_activity_value>
nan

> <actual_activity_value>
-0.3979400086720376

> <Compound>
Chloroquine

> <standard_units>
uM

> hash
16382377881588490945

$$$$
5
XXILIB    08252103503D 0   0.00000     0.00000

 22 23  0     1  0            999 V2000
   -6.1302    5.9894   -2.8461 Cl  0  0  0  0  0  1           0  0  0
   -6.2649    1.1526   -1.4656 N   0  0  0  0  0  3           0  0  0
   -2.6905    1.1811    0.7053 N   0  0  0  0  0  3           0  0  0
    2.0990    1.1697    0.6753 N   0  0  2  0  0  3           0  0  0
   -5.4551    4.6476   -2.0054 C   0  0  0  0  0  4           0  0  0
   -5.5735    2.2995   -1.3862 C   0  0  0  0  0  4           0  0  0
   -5.8000    0.0802   -0.8005 C   0  0  0  0  0  4           0  0  0
   -3.8788    1.2595    0.0163 C   0  0  0  0  0  4           0  0  0
   -4.3693    2.4244   -0.6462 C   0  0  0  0  0  4           0  0  0
   -6.0856    3.4061   -2.0572 C   0  0  0  0  0  4           0  0  0
   -4.2955    4.8062   -1.2664 C   0  0  0  0  0  4           0  0  0
   -4.6389    0.0838   -0.0582 C   0  0  0  0  0  4           0  0  0
   -3.7652    3.7076   -0.5901 C   0  0  0  0  0  4           0  0  0
   -2.1748    0.0000    1.3872 C   0  0  1  0  0  4           0  0  0
    1.5310    0.0000    0.0000 C   0  0  0  0  0  4           0  0  0
    1.7258    2.4595    0.0921 C   0  0  0  0  0  4           0  0  0
    3.5084    1.0425    1.0420 C   0  0  0  0  0  4           0  0  0
   -0.6410    0.0000    1.3872 C   0  0  0  0  0  4           0  0  0
    0.0000    0.0000    0.0000 C   0  0  0  0  0  4           0  0  0
   -2.7695   -0.1330    2.7900 C   0  0  0  0  0  4           0  0  0
    2.1723    2.5791   -1.3613 C   0  0  0  0  0  4           0  0  0
    3.7475   -0.1262    1.9923 C   0  0  0  0  0  4           0  0  0
  1  5  1  0     0  0
  2  6  1  0     0  0
  2  7  2  0     0  0
  3  8  1  0     0  0
  3 14  1  0     0  0
  4 15  1  0     0  0
  4 16  1  0     0  0
  4 17  1  0     0  0
  5 10  1  0     0  0
  5 11  2  0     0  0
  6  9  1  0     0  0
  6 10  2  0     0  0
  7 12  1  0     0  0
  8  9  1  0     0  0
  8 12  2  0     0  0
  9 13  2  0     0  0
 11 13  1  0     0  0
 14 18  1  0     0  0
 14 20  1  0     0  0
 15 19  1  0     0  0
 16 21  1  0     0  0
 17 22  1  0     0  0
 18 19  1  0     0  0
M  END
> <standard_type>
pIC50

> <# Confs.>
25

> <canonical_smiles>
CC(CCCN(CC)CC)NC1=CC=NC2=CC(Cl)=CC=C12

> <standard_relation>
=

> <Publication_ID>
nan

> <predicted_activity_value>
nan

> <actual_activity_value>
-0.3979400086720376

> <Compound>
Chloroquine

> <standard_units>
uM

> hash
16382377881588490945

$$$$
8
XXILIB    08252103503D 0   0.00000     0.00000

 24 27  0     1  0            999 V2000
   -3.0751   -0.0212    4.6371 F   0  0  0  0  0  1           0  0  0
   -4.0621   -0.0585   -0.2370 O   0  0  0  0  0  2           0  0  0
   -1.7420    0.2736   -3.7624 O   0  0  0  0  0  2           0  0  0
   -3.8258    0.1968   -2.8687 O   0  0  0  0  0  2           0  0  0
    0.0000    0.0000    0.0000 N   0  0  1  0  0  3           0  0  0
   -0.2559    0.0181    4.9213 N   0  0  2  0  0  3           0  0  0
    0.9112    0.1948    7.5191 N   0  0  0  0  0  3           0  0  0
   -2.2843   -0.0125    3.5521 C   0  0  0  0  0  4           0  0  0
   -2.8401    0.0034   -0.1772 C   0  0  0  0  0  4           0  0  0
   -0.7521    0.0000    1.2074 C   0  0  0  0  0  4           0  0  0
   -0.6582    0.0896   -1.2117 C   0  0  0  0  0  4           0  0  0
   -0.8868    0.0064    3.6881 C   0  0  0  0  0  4           0  0  0
   -2.1543   -0.0080    1.1422 C   0  0  0  0  0  4           0  0  0
   -1.9868    0.0982   -1.4004 C   0  0  0  0  0  4           0  0  0
   -2.9179   -0.0180    2.3089 C   0  0  0  0  0  4           0  0  0
   -0.1482    0.0141    2.4828 C   0  0  0  0  0  4           0  0  0
   -2.4737    0.1975   -2.7848 C   0  0  0  0  0  4           0  0  0
    1.4649   -0.0000   -0.0000 C   0  0  1  0  0  4           0  0  0
   -0.9109   -0.6287    6.0644 C   0  0  0  0  0  4           0  0  0
    0.6960    1.0922    5.2271 C   0  0  0  0  0  4           0  0  0
    0.1028   -0.9674    7.1567 C   0  0  0  0  0  4           0  0  0
    1.6445    0.6758    6.3501 C   0  0  0  0  0  4           0  0  0
    2.2630   -1.1078    0.6396 C   0  0  0  0  0  4           0  0  0
    2.2651   -0.9529   -0.8506 C   0  0  0  0  0  4           0  0  0
  1  8  1  0     0  0
  2  9  2  0     0  0
  3 17  2  0     0  0
  4 17  1  0     0  0
  5 10  1  0     0  0
  5 11  1  0     0  0
  5 18  1  0     0  0
  6 12  1  0     0  0
  6 19  1  0     0  0
  6 20  1  0     0  0
  7 21  1  0     0  0
  7 22  1  0     0  0
  8 12  2  0     0  0
  8 15  1  0     0  0
  9 13  1  0     0  0
  9 14  1  0     0  0
 10 13  1  0     0  0
 10 16  2  0     0  0
 11 14  2  0     0  0
 12 16  1  0     0  0
 13 15  2  0     0  0
 14 17  1  0     0  0
 18 23  1  0     0  0
 18 24  1  0     0  0
 19 21  1  0     0  0
 20 22  1  0     0  0
 23 24  1  0     0  0
M  END
> <standard_type>
pIC50

> <# Confs.>
25

> <canonical_smiles>
O=C(O)C1=CN(C2=CC(N3CCNCC3)=C(F)C=C2C1=O)C4CC4

> <standard_relation>
=

> <Publication_ID>
nan

> <predicted_activity_value>
nan

> <actual_activity_value>
-2.9849771264154934

> <Compound>
Ciprofloxacin

> <standard_units>
uM

> hash
14758215286752487971

$$$$
8
XXILIB    08252103503D 0   0.00000     0.00000

 24 27  0     1  0            999 V2000
   -3.0751   -0.0212    4.6371 F   0  0  0  0  0  1           0  0  0
   -4.0621   -0.0585   -0.2370 O   0  0  0  0  0  2           0  0  0
   -1.7420    0.2736   -3.7624 O   0  0  0  0  0  2           0  0  0
   -3.8258    0.1968   -2.8687 O   0  0  0  0  0  2           0  0  0
    0.0000    0.0000    0.0000 N   0  0  1  0  0  3           0  0  0
   -0.2559    0.0181    4.9213 N   0  0  2  0  0  3           0  0  0
    1.1754    0.1861    7.3840 N   0  0  0  0  0  3           0  0  0
   -2.2843   -0.0125    3.5521 C   0  0  0  0  0  4           0  0  0
   -2.8401    0.0034   -0.1772 C   0  0  0  0  0  4           0  0  0
   -0.7521    0.0000    1.2074 C   0  0  0  0  0  4           0  0  0
   -0.6582    0.0896   -1.2117 C   0  0  0  0  0  4           0  0  0
   -0.8868    0.0064    3.6881 C   0  0  0  0  0  4           0  0  0
   -2.1543   -0.0080    1.1422 C   0  0  0  0  0  4           0  0  0
   -1.9868    0.0982   -1.4004 C   0  0  0  0  0  4           0  0  0
   -2.9179   -0.0180    2.3089 C   0  0  0  0  0  4           0  0  0
   -0.1482    0.0141    2.4828 C   0  0  0  0  0  4           0  0  0
   -2.4737    0.1975   -2.7848 C   0  0  0  0  0  4           0  0  0
    1.4649   -0.0000   -0.0000 C   0  0  1  0  0  4           0  0  0
   -0.5162    1.1278    5.8459 C   0  0  0  0  0  4           0  0  0
    1.0233   -0.6841    5.0765 C   0  0  0  0  0  4           0  0  0
   -0.1753    0.7349    7.2827 C   0  0  0  0  0  4           0  0  0
    1.2934   -1.0050    6.5456 C   0  0  0  0  0  4           0  0  0
    2.2630   -1.1078    0.6396 C   0  0  0  0  0  4           0  0  0
    2.2651   -0.9529   -0.8506 C   0  0  0  0  0  4           0  0  0
  1  8  1  0     0  0
  2  9  2  0     0  0
  3 17  2  0     0  0
  4 17  1  0     0  0
  5 10  1  0     0  0
  5 11  1  0     0  0
  5 18  1  0     0  0
  6 12  1  0     0  0
  6 19  1  0     0  0
  6 20  1  0     0  0
  7 21  1  0     0  0
  7 22  1  0     0  0
  8 12  2  0     0  0
  8 15  1  0     0  0
  9 13  1  0     0  0
  9 14  1  0     0  0
 10 13  1  0     0  0
 10 16  2  0     0  0
 11 14  2  0     0  0
 12 16  1  0     0  0
 13 15  2  0     0  0
 14 17  1  0     0  0
 18 23  1  0     0  0
 18 24  1  0     0  0
 19 21  1  0     0  0
 20 22  1  0     0  0
 23 24  1  0     0  0
M  END
> <standard_type>
pIC50

> <# Confs.>
25

> <canonical_smiles>
O=C(O)C1=CN(C2=CC(N3CCNCC3)=C(F)C=C2C1=O)C4CC4

> <standard_relation>
=

> <Publication_ID>
nan

> <predicted_activity_value>
nan

> <actual_activity_value>
-2.9849771264154934

> <Compound>
Ciprofloxacin

> <standard_units>
uM

> hash
14758215286752487971

$$$$
8
XXILIB    08252103503D 0   0.00000     0.00000

 24 27  0     1  0            999 V2000
   -3.0751   -0.0212    4.6371 F   0  0  0  0  0  1           0  0  0
   -4.0621   -0.0585   -0.2370 O   0  0  0  0  0  2           0  0  0
   -1.7420    0.2736   -3.7624 O   0  0  0  0  0  2           0  0  0
   -3.8258    0.1968   -2.8687 O   0  0  0  0  0  2           0  0  0
    0.0000    0.0000    0.0000 N   0  0  1  0  0  3           0  0  0
   -0.2607    0.0180    4.9119 N   0  0  2  0  0  3           0  0  0
   -0.2490    1.4216    7.3771 N   0  0  0  0  0  3           0  0  0
   -2.2843   -0.0125    3.5521 C   0  0  0  0  0  4           0  0  0
   -2.8401    0.0034   -0.1772 C   0  0  0  0  0  4           0  0  0
   -0.7521    0.0000    1.2074 C   0  0  0  0  0  4           0  0  0
   -0.6582    0.0896   -1.2117 C   0  0  0  0  0  4           0  0  0
   -0.8868    0.0064    3.6881 C   0  0  0  0  0  4           0  0  0
   -2.1543   -0.0080    1.1422 C   0  0  0  0  0  4           0  0  0
   -1.9868    0.0982   -1.4004 C   0  0  0  0  0  4           0  0  0
   -2.9179   -0.0180    2.3089 C   0  0  0  0  0  4           0  0  0
   -0.1482    0.0141    2.4828 C   0  0  0  0  0  4           0  0  0
   -2.4737    0.1975   -2.7848 C   0  0  0  0  0  4           0  0  0
    1.4649   -0.0000   -0.0000 C   0  0  1  0  0  4           0  0  0
   -0.8554   -0.6073    6.0953 C   0  0  0  0  0  4           0  0  0
    0.8431    0.9327    5.2114 C   0  0  0  0  0  4           0  0  0
   -1.3364    0.4940    7.0445 C   0  0  0  0  0  4           0  0  0
    0.3379    2.0145    6.1702 C   0  0  0  0  0  4           0  0  0
    2.2630   -1.1078    0.6396 C   0  0  0  0  0  4           0  0  0
    2.2651   -0.9529   -0.8506 C   0  0  0  0  0  4           0  0  0
  1  8  1  0     0  0
  2  9  2  0     0  0
  3 17  2  0     0  0
  4 17  1  0     0  0
  5 10  1  0     0  0
  5 11  1  0     0  0
  5 18  1  0     0  0
  6 12  1  0     0  0
  6 19  1  0     0  0
  6 20  1  0     0  0
  7 21  1  0     0  0
  7 22  1  0     0  0
  8 12  2  0     0  0
  8 15  1  0     0  0
  9 13  1  0     0  0
  9 14  1  0     0  0
 10 13  1  0     0  0
 10 16  2  0     0  0
 11 14  2  0     0  0
 12 16  1  0     0  0
 13 15  2  0     0  0
 14 17  1  0     0  0
 18 23  1  0     0  0
 18 24  1  0     0  0
 19 21  1  0     0  0
 20 22  1  0     0  0
 23 24  1  0     0  0
M  END
> <standard_type>
pIC50

> <# Confs.>
25

> <canonical_smiles>
O=C(O)C1=CN(C2=CC(N3CCNCC3)=C(F)C=C2C1=O)C4CC4

> <standard_relation>
=

> <Publication_ID>
nan

> <predicted_activity_value>
nan

> <actual_activity_value>
-2.9849771264154934

> <Compound>
Ciprofloxacin

> <standard_units>
uM

> hash
14758215286752487971

$$$$
8
XXILIB    08252103503D 0   0.00000     0.00000

 24 27  0     1  0            999 V2000
   -3.0751   -0.0212    4.6371 F   0  0  0  0  0  1           0  0  0
   -4.0621   -0.0585   -0.2370 O   0  0  0  0  0  2           0  0  0
   -1.7420    0.2736   -3.7624 O   0  0  0  0  0  2           0  0  0
   -3.8258    0.1968   -2.8687 O   0  0  0  0  0  2           0  0  0
    0.0000    0.0000    0.0000 N   0  0  1  0  0  3           0  0  0
   -0.2559    0.0181    4.9213 N   0  0  2  0  0  3           0  0  0
    0.9112    0.1948    7.5191 N   0  0  0  0  0  3           0  0  0
   -2.2843   -0.0125    3.5521 C   0  0  0  0  0  4           0  0  0
   -2.8401    0.0034   -0.1772 C   0  0  0  0  0  4           0  0  0
   -0.7521    0.0000    1.2074 C   0  0  0  0  0  4           0  0  0
   -0.6582    0.0896   -1.2117 C   0  0  0  0  0  4           0  0  0
   -0.8868    0.0064    3.6881 C   0  0  0  0  0  4           0  0  0
   -2.1543   -0.0080    1.1422 C   0  0  0  0  0  4           0  0  0
   -1.9868    0.0982   -1.4004 C   0  0  0  0  0  4           0  0  0
   -2.9179   -0.0180    2.3089 C   0  0  0  0  0  4           0  0  0
   -0.1482    0.0141    2.4828 C   0  0  0  0  0  4           0  0  0
   -2.4737    0.1975   -2.7848 C   0  0  0  0  0  4           0  0  0
    1.4649    0.0000    0.0000 C   0  0  1  0  0  4           0  0  0
   -0.9109   -0.6287    6.0644 C   0  0  0  0  0  4           0  0  0
    0.6960    1.0922    5.2271 C   0  0  0  0  0  4           0  0  0
    0.1028   -0.9674    7.1567 C   0  0  0  0  0  4           0  0  0
    1.6445    0.6758    6.3501 C   0  0  0  0  0  4           0  0  0
    2.2630    0.6396   -1.1078 C   0  0  0  0  0  4           0  0  0
    2.2651    1.2506    0.2602 C   0  0  0  0  0  4           0  0  0
  1  8  1  0     0  0
  2  9  2  0     0  0
  3 17  2  0     0  0
  4 17  1  0     0  0
  5 10  1  0     0  0
  5 11  1  0     0  0
  5 18  1  0     0  0
  6 12  1  0     0  0
  6 19  1  0     0  0
  6 20  1  0     0  0
  7 21  1  0     0  0
  7 22  1  0     0  0
  8 12  2  0     0  0
  8 15  1  0     0  0
  9 13  1  0     0  0
  9 14  1  0     0  0
 10 13  1  0     0  0
 10 16  2  0     0  0
 11 14  2  0     0  0
 12 16  1  0     0  0
 13 15  2  0     0  0
 14 17  1  0     0  0
 18 23  1  0     0  0
 18 24  1  0     0  0
 19 21  1  0     0  0
 20 22  1  0     0  0
 23 24  1  0     0  0
M  END
> <standard_type>
pIC50

> <# Confs.>
25

> <canonical_smiles>
O=C(O)C1=CN(C2=CC(N3CCNCC3)=C(F)C=C2C1=O)C4CC4

> <standard_relation>
=

> <Publication_ID>
nan

> <predicted_activity_value>
nan

> <actual_activity_value>
-2.9849771264154934

> <Compound>
Ciprofloxacin

> <standard_units>
uM

> hash
14758215286752487971

$$$$
8
XXILIB    08252103503D 0   0.00000     0.00000

 24 27  0     1  0            999 V2000
   -3.0751   -0.0212    4.6371 F   0  0  0  0  0  1           0  0  0
   -4.0621   -0.0585   -0.2370 O   0  0  0  0  0  2           0  0  0
   -1.7420    0.2736   -3.7624 O   0  0  0  0  0  2           0  0  0
   -3.8258    0.1968   -2.8687 O   0  0  0  0  0  2           0  0  0
    0.0000    0.0000    0.0000 N   0  0  1  0  0  3           0  0  0
   -0.2559    0.0181    4.9213 N   0  0  2  0  0  3           0  0  0
    1.1754    0.1861    7.3840 N   0  0  0  0  0  3           0  0  0
   -2.2843   -0.0125    3.5521 C   0  0  0  0  0  4           0  0  0
   -2.8401    0.0034   -0.1772 C   0  0  0  0  0  4           0  0  0
   -0.7521    0.0000    1.2074 C   0  0  0  0  0  4           0  0  0
   -0.6582    0.0896   -1.2117 C   0  0  0  0  0  4           0  0  0
   -0.8868    0.0064    3.6881 C   0  0  0  0  0  4           0  0  0
   -2.1543   -0.0080    1.1422 C   0  0  0  0  0  4           0  0  0
   -1.9868    0.0982   -1.4004 C   0  0  0  0  0  4           0  0  0
   -2.9179   -0.0180    2.3089 C   0  0  0  0  0  4           0  0  0
   -0.1482    0.0141    2.4828 C   0  0  0  0  0  4           0  0  0
   -2.4737    0.1975   -2.7848 C   0  0  0  0  0  4           0  0  0
    1.4649    0.0000    0.0000 C   0  0  1  0  0  4           0  0  0
   -0.5162    1.1278    5.8459 C   0  0  0  0  0  4           0  0  0
    1.0233   -0.6841    5.0765 C   0  0  0  0  0  4           0  0  0
   -0.1753    0.7349    7.2827 C   0  0  0  0  0  4           0  0  0
    1.2934   -1.0050    6.5456 C   0  0  0  0  0  4           0  0  0
    2.2630    0.6396   -1.1078 C   0  0  0  0  0  4           0  0  0
    2.2651    1.2506    0.2602 C   0  0  0  0  0  4           0  0  0
  1  8  1  0     0  0
  2  9  2  0     0  0
  3 17  2  0     0  0
  4 17  1  0     0  0
  5 10  1  0     0  0
  5 11  1  0     0  0
  5 18  1  0     0  0
  6 12  1  0     0  0
  6 19  1  0     0  0
  6 20  1  0     0  0
  7 21  1  0     0  0
  7 22  1  0     0  0
  8 12  2  0     0  0
  8 15  1  0     0  0
  9 13  1  0     0  0
  9 14  1  0     0  0
 10 13  1  0     0  0
 10 16  2  0     0  0
 11 14  2  0     0  0
 12 16  1  0     0  0
 13 15  2  0     0  0
 14 17  1  0     0  0
 18 23  1  0     0  0
 18 24  1  0     0  0
 19 21  1  0     0  0
 20 22  1  0     0  0
 23 24  1  0     0  0
M  END
> <standard_type>
pIC50

> <# Confs.>
25

> <canonical_smiles>
O=C(O)C1=CN(C2=CC(N3CCNCC3)=C(F)C=C2C1=O)C4CC4

> <standard_relation>
=

> <Publication_ID>
nan

> <predicted_activity_value>
nan

> <actual_activity_value>
-2.9849771264154934

> <Compound>
Ciprofloxacin

> <standard_units>
uM

> hash
14758215286752487971

$$$$
8
XXILIB    08252103503D 0   0.00000     0.00000

 24 27  0     1  0            999 V2000
   -3.0751   -0.0212    4.6371 F   0  0  0  0  0  1           0  0  0
   -4.0621   -0.0585   -0.2370 O   0  0  0  0  0  2           0  0  0
   -1.7420    0.2736   -3.7624 O   0  0  0  0  0  2           0  0  0
   -3.8258    0.1968   -2.8687 O   0  0  0  0  0  2           0  0  0
    0.0000    0.0000    0.0000 N   0  0  1  0  0  3           0  0  0
   -0.2607    0.0180    4.9119 N   0  0  2  0  0  3           0  0  0
   -0.2490    1.4216    7.3771 N   0  0  0  0  0  3           0  0  0
   -2.2843   -0.0125    3.5521 C   0  0  0  0  0  4           0  0  0
   -2.8401    0.0034   -0.1772 C   0  0  0  0  0  4           0  0  0
   -0.7521    0.0000    1.2074 C   0  0  0  0  0  4           0  0  0
   -0.6582    0.0896   -1.2117 C   0  0  0  0  0  4           0  0  0
   -0.8868    0.0064    3.6881 C   0  0  0  0  0  4           0  0  0
   -2.1543   -0.0080    1.1422 C   0  0  0  0  0  4           0  0  0
   -1.9868    0.0982   -1.4004 C   0  0  0  0  0  4           0  0  0
   -2.9179   -0.0180    2.3089 C   0  0  0  0  0  4           0  0  0
   -0.1482    0.0141    2.4828 C   0  0  0  0  0  4           0  0  0
   -2.4737    0.1975   -2.7848 C   0  0  0  0  0  4           0  0  0
    1.4649    0.0000    0.0000 C   0  0  1  0  0  4           0  0  0
   -0.8554   -0.6073    6.0953 C   0  0  0  0  0  4           0  0  0
    0.8431    0.9327    5.2114 C   0  0  0  0  0  4           0  0  0
   -1.3364    0.4940    7.0445 C   0  0  0  0  0  4           0  0  0
    0.3379    2.0145    6.1702 C   0  0  0  0  0  4           0  0  0
    2.2630    0.6396   -1.1078 C   0  0  0  0  0  4           0  0  0
    2.2651    1.2506    0.2602 C   0  0  0  0  0  4           0  0  0
  1  8  1  0     0  0
  2  9  2  0     0  0
  3 17  2  0     0  0
  4 17  1  0     0  0
  5 10  1  0     0  0
  5 11  1  0     0  0
  5 18  1  0     0  0
  6 12  1  0     0  0
  6 19  1  0     0  0
  6 20  1  0     0  0
  7 21  1  0     0  0
  7 22  1  0     0  0
  8 12  2  0     0  0
  8 15  1  0     0  0
  9 13  1  0     0  0
  9 14  1  0     0  0
 10 13  1  0     0  0
 10 16  2  0     0  0
 11 14  2  0     0  0
 12 16  1  0     0  0
 13 15  2  0     0  0
 14 17  1  0     0  0
 18 23  1  0     0  0
 18 24  1  0     0  0
 19 21  1  0     0  0
 20 22  1  0     0  0
 23 24  1  0     0  0
M  END
> <standard_type>
pIC50

> <# Confs.>
25

> <canonical_smiles>
O=C(O)C1=CN(C2=CC(N3CCNCC3)=C(F)C=C2C1=O)C4CC4

> <standard_relation>
=

> <Publication_ID>
nan

> <predicted_activity_value>
nan

> <actual_activity_value>
-2.9849771264154934

> <Compound>
Ciprofloxacin

> <standard_units>
uM

> hash
14758215286752487971

$$$$
8
XXILIB    08252103503D 0   0.00000     0.00000

 24 27  0     1  0            999 V2000
   -3.0751   -0.0212    4.6371 F   0  0  0  0  0  1           0  0  0
   -4.0621   -0.0585   -0.2370 O   0  0  0  0  0  2           0  0  0
   -1.7420    0.2736   -3.7624 O   0  0  0  0  0  2           0  0  0
   -3.8258    0.1968   -2.8687 O   0  0  0  0  0  2           0  0  0
    0.0000    0.0000    0.0000 N   0  0  1  0  0  3           0  0  0
   -0.2607    0.0180    4.9119 N   0  0  2  0  0  3           0  0  0
    1.9752    1.1489    6.2418 N   0  0  0  0  0  3           0  0  0
   -2.2843   -0.0125    3.5521 C   0  0  0  0  0  4           0  0  0
   -2.8401    0.0034   -0.1772 C   0  0  0  0  0  4           0  0  0
   -0.7521    0.0000    1.2074 C   0  0  0  0  0  4           0  0  0
   -0.6582    0.0896   -1.2117 C   0  0  0  0  0  4           0  0  0
   -0.8868    0.0064    3.6881 C   0  0  0  0  0  4           0  0  0
   -2.1543   -0.0080    1.1422 C   0  0  0  0  0  4           0  0  0
   -1.9868    0.0982   -1.4004 C   0  0  0  0  0  4           0  0  0
   -2.9179   -0.0180    2.3089 C   0  0  0  0  0  4           0  0  0
   -0.1482    0.0141    2.4828 C   0  0  0  0  0  4           0  0  0
   -2.4737    0.1975   -2.7848 C   0  0  0  0  0  4           0  0  0
    1.4649   -0.0000   -0.0000 C   0  0  1  0  0  4           0  0  0
   -0.4734    1.0929    5.8837 C   0  0  0  0  0  4           0  0  0
    0.9049   -0.8217    5.1964 C   0  0  0  0  0  4           0  0  0
    0.7884    1.9587    5.9437 C   0  0  0  0  0  4           0  0  0
    2.1480    0.0700    5.2627 C   0  0  0  0  0  4           0  0  0
    2.2630   -1.1078    0.6396 C   0  0  0  0  0  4           0  0  0
    2.2651   -0.9529   -0.8506 C   0  0  0  0  0  4           0  0  0
  1  8  1  0     0  0
  2  9  2  0     0  0
  3 17  2  0     0  0
  4 17  1  0     0  0
  5 10  1  0     0  0
  5 11  1  0     0  0
  5 18  1  0     0  0
  6 12  1  0     0  0
  6 19  1  0     0  0
  6 20  1  0     0  0
  7 21  1  0     0  0
  7 22  1  0     0  0
  8 12  2  0     0  0
  8 15  1  0     0  0
  9 13  1  0     0  0
  9 14  1  0     0  0
 10 13  1  0     0  0
 10 16  2  0     0  0
 11 14  2  0     0  0
 12 16  1  0     0  0
 13 15  2  0     0  0
 14 17  1  0     0  0
 18 23  1  0     0  0
 18 24  1  0     0  0
 19 21  1  0     0  0
 20 22  1  0     0  0
 23 24  1  0     0  0
M  END
> <standard_type>
pIC50

> <# Confs.>
25

> <canonical_smiles>
O=C(O)C1=CN(C2=CC(N3CCNCC3)=C(F)C=C2C1=O)C4CC4

> <standard_relation>
=

> <Publication_ID>
nan

> <predicted_activity_value>
nan

> <actual_activity_value>
-2.9849771264154934

> <Compound>
Ciprofloxacin

> <standard_units>
uM

> hash
14758215286752487971

$$$$
8
XXILIB    08252103503D 0   0.00000     0.00000

 24 27  0     1  0            999 V2000
   -3.0751   -0.0212    4.6371 F   0  0  0  0  0  1           0  0  0
   -4.0621   -0.0585   -0.2370 O   0  0  0  0  0  2           0  0  0
   -1.7420    0.2736   -3.7624 O   0  0  0  0  0  2           0  0  0
   -3.8258    0.1968   -2.8687 O   0  0  0  0  0  2           0  0  0
    0.0000    0.0000    0.0000 N   0  0  1  0  0  3           0  0  0
   -0.2607    0.0180    4.9119 N   0  0  2  0  0  3           0  0  0
    1.7421   -1.3482    6.3848 N   0  0  0  0  0  3           0  0  0
   -2.2843   -0.0125    3.5521 C   0  0  0  0  0  4           0  0  0
   -2.8401    0.0034   -0.1772 C   0  0  0  0  0  4           0  0  0
   -0.7521    0.0000    1.2074 C   0  0  0  0  0  4           0  0  0
   -0.6582    0.0896   -1.2117 C   0  0  0  0  0  4           0  0  0
   -0.8868    0.0064    3.6881 C   0  0  0  0  0  4           0  0  0
   -2.1543   -0.0080    1.1422 C   0  0  0  0  0  4           0  0  0
   -1.9868    0.0982   -1.4004 C   0  0  0  0  0  4           0  0  0
   -2.9179   -0.0180    2.3089 C   0  0  0  0  0  4           0  0  0
   -0.1482    0.0141    2.4828 C   0  0  0  0  0  4           0  0  0
   -2.4737    0.1975   -2.7848 C   0  0  0  0  0  4           0  0  0
    1.4649    0.0000    0.0000 C   0  0  1  0  0  4           0  0  0
    1.0420    0.6565    5.1126 C   0  0  0  0  0  4           0  0  0
   -0.6568   -0.8836    5.9959 C   0  0  0  0  0  4           0  0  0
    2.1016   -0.4341    5.2946 C   0  0  0  0  0  4           0  0  0
    0.4246   -1.9547    6.1636 C   0  0  0  0  0  4           0  0  0
    2.2630    1.1078   -0.6396 C   0  0  0  0  0  4           0  0  0
    2.2651    0.9529    0.8506 C   0  0  0  0  0  4           0  0  0
  1  8  1  0     0  0
  2  9  2  0     0  0
  3 17  2  0     0  0
  4 17  1  0     0  0
  5 10  1  0     0  0
  5 11  1  0     0  0
  5 18  1  0     0  0
  6 12  1  0     0  0
  6 19  1  0     0  0
  6 20  1  0     0  0
  7 21  1  0     0  0
  7 22  1  0     0  0
  8 12  2  0     0  0
  8 15  1  0     0  0
  9 13  1  0     0  0
  9 14  1  0     0  0
 10 13  1  0     0  0
 10 16  2  0     0  0
 11 14  2  0     0  0
 12 16  1  0     0  0
 13 15  2  0     0  0
 14 17  1  0     0  0
 18 23  1  0     0  0
 18 24  1  0     0  0
 19 21  1  0     0  0
 20 22  1  0     0  0
 23 24  1  0     0  0
M  END
> <standard_type>
pIC50

> <# Confs.>
25

> <canonical_smiles>
O=C(O)C1=CN(C2=CC(N3CCNCC3)=C(F)C=C2C1=O)C4CC4

> <standard_relation>
=

> <Publication_ID>
nan

> <predicted_activity_value>
nan

> <actual_activity_value>
-2.9849771264154934

> <Compound>
Ciprofloxacin

> <standard_units>
uM

> hash
14758215286752487971

$$$$
8
XXILIB    08252103503D 0   0.00000     0.00000

 24 27  0     1  0            999 V2000
   -3.0751   -0.0212    4.6371 F   0  0  0  0  0  1           0  0  0
   -4.0621   -0.0585   -0.2370 O   0  0  0  0  0  2           0  0  0
   -1.7420    0.2736   -3.7624 O   0  0  0  0  0  2           0  0  0
   -3.8258    0.1968   -2.8687 O   0  0  0  0  0  2           0  0  0
    0.0000    0.0000    0.0000 N   0  0  1  0  0  3           0  0  0
   -0.2607    0.0180    4.9119 N   0  0  2  0  0  3           0  0  0
   -0.8153   -0.2341    7.6825 N   0  0  0  0  0  3           0  0  0
   -2.2843   -0.0125    3.5521 C   0  0  0  0  0  4           0  0  0
   -2.8401    0.0034   -0.1772 C   0  0  0  0  0  4           0  0  0
   -0.7521    0.0000    1.2074 C   0  0  0  0  0  4           0  0  0
   -0.6582    0.0896   -1.2117 C   0  0  0  0  0  4           0  0  0
   -0.8868    0.0064    3.6881 C   0  0  0  0  0  4           0  0  0
   -2.1543   -0.0080    1.1422 C   0  0  0  0  0  4           0  0  0
   -1.9868    0.0982   -1.4004 C   0  0  0  0  0  4           0  0  0
   -2.9179   -0.0180    2.3089 C   0  0  0  0  0  4           0  0  0
   -0.1482    0.0141    2.4828 C   0  0  0  0  0  4           0  0  0
   -2.4737    0.1975   -2.7848 C   0  0  0  0  0  4           0  0  0
    1.4649   -0.0000   -0.0000 C   0  0  1  0  0  4           0  0  0
    0.1097   -1.2166    5.6073 C   0  0  0  0  0  4           0  0  0
   -0.2349    1.2115    5.7602 C   0  0  0  0  0  4           0  0  0
   -0.8283   -1.4084    6.8026 C   0  0  0  0  0  4           0  0  0
   -1.1705    0.9875    6.9516 C   0  0  0  0  0  4           0  0  0
    2.2630   -1.1078    0.6396 C   0  0  0  0  0  4           0  0  0
    2.2651   -0.9529   -0.8506 C   0  0  0  0  0  4           0  0  0
  1  8  1  0     0  0
  2  9  2  0     0  0
  3 17  2  0     0  0
  4 17  1  0     0  0
  5 10  1  0     0  0
  5 11  1  0     0  0
  5 18  1  0     0  0
  6 12  1  0     0  0
  6 19  1  0     0  0
  6 20  1  0     0  0
  7 21  1  0     0  0
  7 22  1  0     0  0
  8 12  2  0     0  0
  8 15  1  0     0  0
  9 13  1  0     0  0
  9 14  1  0     0  0
 10 13  1  0     0  0
 10 16  2  0     0  0
 11 14  2  0     0  0
 12 16  1  0     0  0
 13 15  2  0     0  0
 14 17  1  0     0  0
 18 23  1  0     0  0
 18 24  1  0     0  0
 19 21  1  0     0  0
 20 22  1  0     0  0
 23 24  1  0     0  0
M  END
> <standard_type>
pIC50

> <# Confs.>
25

> <canonical_smiles>
O=C(O)C1=CN(C2=CC(N3CCNCC3)=C(F)C=C2C1=O)C4CC4

> <standard_relation>
=

> <Publication_ID>
nan

> <predicted_activity_value>
nan

> <actual_activity_value>
-2.9849771264154934

> <Compound>
Ciprofloxacin

> <standard_units>
uM

> hash
14758215286752487971

$$$$
8
XXILIB    08252103503D 0   0.00000     0.00000

 24 27  0     1  0            999 V2000
   -3.0751   -0.0212    4.6371 F   0  0  0  0  0  1           0  0  0
   -4.0621   -0.0585   -0.2370 O   0  0  0  0  0  2           0  0  0
   -1.7420    0.2736   -3.7624 O   0  0  0  0  0  2           0  0  0
   -3.8258    0.1968   -2.8687 O   0  0  0  0  0  2           0  0  0
    0.0000    0.0000    0.0000 N   0  0  1  0  0  3           0  0  0
   -0.2607    0.0180    4.9119 N   0  0  2  0  0  3           0  0  0
    1.9752    1.1489    6.2418 N   0  0  0  0  0  3           0  0  0
   -2.2843   -0.0125    3.5521 C   0  0  0  0  0  4           0  0  0
   -2.8401    0.0034   -0.1772 C   0  0  0  0  0  4           0  0  0
   -0.7521    0.0000    1.2074 C   0  0  0  0  0  4           0  0  0
   -0.6582    0.0896   -1.2117 C   0  0  0  0  0  4           0  0  0
   -0.8868    0.0064    3.6881 C   0  0  0  0  0  4           0  0  0
   -2.1543   -0.0080    1.1422 C   0  0  0  0  0  4           0  0  0
   -1.9868    0.0982   -1.4004 C   0  0  0  0  0  4           0  0  0
   -2.9179   -0.0180    2.3089 C   0  0  0  0  0  4           0  0  0
   -0.1482    0.0141    2.4828 C   0  0  0  0  0  4           0  0  0
   -2.4737    0.1975   -2.7848 C   0  0  0  0  0  4           0  0  0
    1.4649    0.0000    0.0000 C   0  0  1  0  0  4           0  0  0
   -0.4734    1.0929    5.8837 C   0  0  0  0  0  4           0  0  0
    0.9049   -0.8217    5.1964 C   0  0  0  0  0  4           0  0  0
    0.7884    1.9587    5.9437 C   0  0  0  0  0  4           0  0  0
    2.1480    0.0700    5.2627 C   0  0  0  0  0  4           0  0  0
    2.2630    0.6396   -1.1078 C   0  0  0  0  0  4           0  0  0
    2.2651    1.2506    0.2602 C   0  0  0  0  0  4           0  0  0
  1  8  1  0     0  0
  2  9  2  0     0  0
  3 17  2  0     0  0
  4 17  1  0     0  0
  5 10  1  0     0  0
  5 11  1  0     0  0
  5 18  1  0     0  0
  6 12  1  0     0  0
  6 19  1  0     0  0
  6 20  1  0     0  0
  7 21  1  0     0  0
  7 22  1  0     0  0
  8 12  2  0     0  0
  8 15  1  0     0  0
  9 13  1  0     0  0
  9 14  1  0     0  0
 10 13  1  0     0  0
 10 16  2  0     0  0
 11 14  2  0     0  0
 12 16  1  0     0  0
 13 15  2  0     0  0
 14 17  1  0     0  0
 18 23  1  0     0  0
 18 24  1  0     0  0
 19 21  1  0     0  0
 20 22  1  0     0  0
 23 24  1  0     0  0
M  END
> <standard_type>
pIC50

> <# Confs.>
25

> <canonical_smiles>
O=C(O)C1=CN(C2=CC(N3CCNCC3)=C(F)C=C2C1=O)C4CC4

> <standard_relation>
=

> <Publication_ID>
nan

> <predicted_activity_value>
nan

> <actual_activity_value>
-2.9849771264154934

> <Compound>
Ciprofloxacin

> <standard_units>
uM

> hash
14758215286752487971

$$$$
8
XXILIB    08252103503D 0   0.00000     0.00000

 24 27  0     1  0            999 V2000
   -3.0751   -0.0212    4.6371 F   0  0  0  0  0  1           0  0  0
   -4.0621   -0.0585   -0.2370 O   0  0  0  0  0  2           0  0  0
   -1.7420    0.2736   -3.7624 O   0  0  0  0  0  2           0  0  0
   -3.8258    0.1968   -2.8687 O   0  0  0  0  0  2           0  0  0
    0.0000    0.0000    0.0000 N   0  0  1  0  0  3           0  0  0
   -0.2607    0.0180    4.9119 N   0  0  2  0  0  3           0  0  0
    0.1802   -1.6190    7.1863 N   0  0  0  0  0  3           0  0  0
   -2.2843   -0.0125    3.5521 C   0  0  0  0  0  4           0  0  0
   -2.8401    0.0034   -0.1772 C   0  0  0  0  0  4           0  0  0
   -0.7521    0.0000    1.2074 C   0  0  0  0  0  4           0  0  0
   -0.6582    0.0896   -1.2117 C   0  0  0  0  0  4           0  0  0
   -0.8868    0.0064    3.6881 C   0  0  0  0  0  4           0  0  0
   -2.1543   -0.0080    1.1422 C   0  0  0  0  0  4           0  0  0
   -1.9868    0.0982   -1.4004 C   0  0  0  0  0  4           0  0  0
   -2.9179   -0.0180    2.3089 C   0  0  0  0  0  4           0  0  0
   -0.1482    0.0141    2.4828 C   0  0  0  0  0  4           0  0  0
   -2.4737    0.1975   -2.7848 C   0  0  0  0  0  4           0  0  0
    1.4649    0.0000   -0.0000 C   0  0  1  0  0  4           0  0  0
    1.0584   -0.5847    5.1160 C   0  0  0  0  0  4           0  0  0
   -0.9849    0.3034    6.1524 C   0  0  0  0  0  4           0  0  0
    0.8907   -1.8725    5.9277 C   0  0  0  0  0  4           0  0  0
   -1.1272   -0.9971    6.9483 C   0  0  0  0  0  4           0  0  0
    2.2630   -1.2792   -0.0000 C   0  0  0  0  0  4           0  0  0
    2.2651   -0.4000   -1.2131 C   0  0  0  0  0  4           0  0  0
  1  8  1  0     0  0
  2  9  2  0     0  0
  3 17  2  0     0  0
  4 17  1  0     0  0
  5 10  1  0     0  0
  5 11  1  0     0  0
  5 18  1  0     0  0
  6 12  1  0     0  0
  6 19  1  0     0  0
  6 20  1  0     0  0
  7 21  1  0     0  0
  7 22  1  0     0  0
  8 12  2  0     0  0
  8 15  1  0     0  0
  9 13  1  0     0  0
  9 14  1  0     0  0
 10 13  1  0     0  0
 10 16  2  0     0  0
 11 14  2  0     0  0
 12 16  1  0     0  0
 13 15  2  0     0  0
 14 17  1  0     0  0
 18 23  1  0     0  0
 18 24  1  0     0  0
 19 21  1  0     0  0
 20 22  1  0     0  0
 23 24  1  0     0  0
M  END
> <standard_type>
pIC50

> <# Confs.>
25

> <canonical_smiles>
O=C(O)C1=CN(C2=CC(N3CCNCC3)=C(F)C=C2C1=O)C4CC4

> <standard_relation>
=

> <Publication_ID>
nan

> <predicted_activity_value>
nan

> <actual_activity_value>
-2.9849771264154934

> <Compound>
Ciprofloxacin

> <standard_units>
uM

> hash
14758215286752487971

$$$$
8
XXILIB    08252103503D 0   0.00000     0.00000

 24 27  0     1  0            999 V2000
   -3.0751   -0.0212    4.6371 F   0  0  0  0  0  1           0  0  0
   -4.0621   -0.0585   -0.2370 O   0  0  0  0  0  2           0  0  0
   -1.7420    0.2736   -3.7624 O   0  0  0  0  0  2           0  0  0
   -3.8258    0.1968   -2.8687 O   0  0  0  0  0  2           0  0  0
    0.0000    0.0000    0.0000 N   0  0  1  0  0  3           0  0  0
   -0.2607    0.0180    4.9119 N   0  0  2  0  0  3           0  0  0
   -0.8153   -0.2341    7.6825 N   0  0  0  0  0  3           0  0  0
   -2.2843   -0.0125    3.5521 C   0  0  0  0  0  4           0  0  0
   -2.8401    0.0034   -0.1772 C   0  0  0  0  0  4           0  0  0
   -0.7521    0.0000    1.2074 C   0  0  0  0  0  4           0  0  0
   -0.6582    0.0896   -1.2117 C   0  0  0  0  0  4           0  0  0
   -0.8868    0.0064    3.6881 C   0  0  0  0  0  4           0  0  0
   -2.1543   -0.0080    1.1422 C   0  0  0  0  0  4           0  0  0
   -1.9868    0.0982   -1.4004 C   0  0  0  0  0  4           0  0  0
   -2.9179   -0.0180    2.3089 C   0  0  0  0  0  4           0  0  0
   -0.1482    0.0141    2.4828 C   0  0  0  0  0  4           0  0  0
   -2.4737    0.1975   -2.7848 C   0  0  0  0  0  4           0  0  0
    1.4649    0.0000    0.0000 C   0  0  1  0  0  4           0  0  0
    0.1097   -1.2166    5.6073 C   0  0  0  0  0  4           0  0  0
   -0.2349    1.2115    5.7602 C   0  0  0  0  0  4           0  0  0
   -0.8283   -1.4084    6.8026 C   0  0  0  0  0  4           0  0  0
   -1.1705    0.9875    6.9516 C   0  0  0  0  0  4           0  0  0
    2.2630    0.6396   -1.1078 C   0  0  0  0  0  4           0  0  0
    2.2651    1.2506    0.2602 C   0  0  0  0  0  4           0  0  0
  1  8  1  0     0  0
  2  9  2  0     0  0
  3 17  2  0     0  0
  4 17  1  0     0  0
  5 10  1  0     0  0
  5 11  1  0     0  0
  5 18  1  0     0  0
  6 12  1  0     0  0
  6 19  1  0     0  0
  6 20  1  0     0  0
  7 21  1  0     0  0
  7 22  1  0     0  0
  8 12  2  0     0  0
  8 15  1  0     0  0
  9 13  1  0     0  0
  9 14  1  0     0  0
 10 13  1  0     0  0
 10 16  2  0     0  0
 11 14  2  0     0  0
 12 16  1  0     0  0
 13 15  2  0     0  0
 14 17  1  0     0  0
 18 23  1  0     0  0
 18 24  1  0     0  0
 19 21  1  0     0  0
 20 22  1  0     0  0
 23 24  1  0     0  0
M  END
> <standard_type>
pIC50

> <# Confs.>
25

> <canonical_smiles>
O=C(O)C1=CN(C2=CC(N3CCNCC3)=C(F)C=C2C1=O)C4CC4

> <standard_relation>
=

> <Publication_ID>
nan

> <predicted_activity_value>
nan

> <actual_activity_value>
-2.9849771264154934

> <Compound>
Ciprofloxacin

> <standard_units>
uM

> hash
14758215286752487971

$$$$
8
XXILIB    08252103503D 0   0.00000     0.00000

 24 27  0     1  0            999 V2000
   -3.0751   -0.0212    4.6371 F   0  0  0  0  0  1           0  0  0
   -4.0621   -0.0585   -0.2370 O   0  0  0  0  0  2           0  0  0
   -1.8731    0.7757   -3.6802 O   0  0  0  0  0  2           0  0  0
   -3.6648   -0.4207   -2.9696 O   0  0  0  0  0  2           0  0  0
    0.0000    0.0000    0.0000 N   0  0  1  0  0  3           0  0  0
   -0.2607    0.0180    4.9119 N   0  0  2  0  0  3           0  0  0
    0.1802   -1.6190    7.1863 N   0  0  0  0  0  3           0  0  0
   -2.2843   -0.0125    3.5521 C   0  0  0  0  0  4           0  0  0
   -2.8401    0.0034   -0.1772 C   0  0  0  0  0  4           0  0  0
   -0.7521    0.0000    1.2074 C   0  0  0  0  0  4           0  0  0
   -0.6582    0.0896   -1.2117 C   0  0  0  0  0  4           0  0  0
   -0.8868    0.0064    3.6881 C   0  0  0  0  0  4           0  0  0
   -2.1543   -0.0080    1.1422 C   0  0  0  0  0  4           0  0  0
   -1.9868    0.0982   -1.4004 C   0  0  0  0  0  4           0  0  0
   -2.9179   -0.0180    2.3089 C   0  0  0  0  0  4           0  0  0
   -0.1482    0.0141    2.4828 C   0  0  0  0  0  4           0  0  0
   -2.4737    0.1975   -2.7848 C   0  0  0  0  0  4           0  0  0
    1.4649    0.0000    0.0000 C   0  0  1  0  0  4           0  0  0
    1.0584   -0.5847    5.1160 C   0  0  0  0  0  4           0  0  0
   -0.9849    0.3034    6.1524 C   0  0  0  0  0  4           0  0  0
    0.8907   -1.8725    5.9277 C   0  0  0  0  0  4           0  0  0
   -1.1272   -0.9971    6.9483 C   0  0  0  0  0  4           0  0  0
    2.2630    0.6396   -1.1078 C   0  0  0  0  0  4           0  0  0
    2.2651    1.2506    0.2602 C   0  0  0  0  0  4           0  0  0
  1  8  1  0     0  0
  2  9  2  0     0  0
  3 17  2  0     0  0
  4 17  1  0     0  0
  5 10  1  0     0  0
  5 11  1  0     0  0
  5 18  1  0     0  0
  6 12  1  0     0  0
  6 19  1  0     0  0
  6 20  1  0     0  0
  7 21  1  0     0  0
  7 22  1  0     0  0
  8 12  2  0     0  0
  8 15  1  0     0  0
  9 13  1  0     0  0
  9 14  1  0     0  0
 10 13  1  0     0  0
 10 16  2  0     0  0
 11 14  2  0     0  0
 12 16  1  0     0  0
 13 15  2  0     0  0
 14 17  1  0     0  0
 18 23  1  0     0  0
 18 24  1  0     0  0
 19 21  1  0     0  0
 20 22  1  0     0  0
 23 24  1  0     0  0
M  END
> <standard_type>
pIC50

> <# Confs.>
25

> <canonical_smiles>
O=C(O)C1=CN(C2=CC(N3CCNCC3)=C(F)C=C2C1=O)C4CC4

> <standard_relation>
=

> <Publication_ID>
nan

> <predicted_activity_value>
nan

> <actual_activity_value>
-2.9849771264154934

> <Compound>
Ciprofloxacin

> <standard_units>
uM

> hash
14758215286752487971

$$$$
8
XXILIB    08252103503D 0   0.00000     0.00000

 24 27  0     1  0            999 V2000
   -3.0751   -0.0212    4.6371 F   0  0  0  0  0  1           0  0  0
   -4.0621   -0.0585   -0.2370 O   0  0  0  0  0  2           0  0  0
   -1.7420    0.2736   -3.7624 O   0  0  0  0  0  2           0  0  0
   -3.8258    0.1968   -2.8687 O   0  0  0  0  0  2           0  0  0
    0.0000    0.0000    0.0000 N   0  0  1  0  0  3           0  0  0
   -0.2607    0.0180    4.9119 N   0  0  2  0  0  3           0  0  0
    1.7421   -1.3482    6.3848 N   0  0  0  0  0  3           0  0  0
   -2.2843   -0.0125    3.5521 C   0  0  0  0  0  4           0  0  0
   -2.8401    0.0034   -0.1772 C   0  0  0  0  0  4           0  0  0
   -0.7521    0.0000    1.2074 C   0  0  0  0  0  4           0  0  0
   -0.6582    0.0896   -1.2117 C   0  0  0  0  0  4           0  0  0
   -0.8868    0.0064    3.6881 C   0  0  0  0  0  4           0  0  0
   -2.1543   -0.0080    1.1422 C   0  0  0  0  0  4           0  0  0
   -1.9868    0.0982   -1.4004 C   0  0  0  0  0  4           0  0  0
   -2.9179   -0.0180    2.3089 C   0  0  0  0  0  4           0  0  0
   -0.1482    0.0141    2.4828 C   0  0  0  0  0  4           0  0  0
   -2.4737    0.1975   -2.7848 C   0  0  0  0  0  4           0  0  0
    1.4649    0.0000   -0.0000 C   0  0  1  0  0  4           0  0  0
    1.0420    0.6565    5.1126 C   0  0  0  0  0  4           0  0  0
   -0.6568   -0.8836    5.9959 C   0  0  0  0  0  4           0  0  0
    2.1016   -0.4341    5.2946 C   0  0  0  0  0  4           0  0  0
    0.4246   -1.9547    6.1636 C   0  0  0  0  0  4           0  0  0
    2.2630   -1.1078   -0.6396 C   0  0  0  0  0  4           0  0  0
    2.2651    0.2602   -1.2506 C   0  0  0  0  0  4           0  0  0
  1  8  1  0     0  0
  2  9  2  0     0  0
  3 17  2  0     0  0
  4 17  1  0     0  0
  5 10  1  0     0  0
  5 11  1  0     0  0
  5 18  1  0     0  0
  6 12  1  0     0  0
  6 19  1  0     0  0
  6 20  1  0     0  0
  7 21  1  0     0  0
  7 22  1  0     0  0
  8 12  2  0     0  0
  8 15  1  0     0  0
  9 13  1  0     0  0
  9 14  1  0     0  0
 10 13  1  0     0  0
 10 16  2  0     0  0
 11 14  2  0     0  0
 12 16  1  0     0  0
 13 15  2  0     0  0
 14 17  1  0     0  0
 18 23  1  0     0  0
 18 24  1  0     0  0
 19 21  1  0     0  0
 20 22  1  0     0  0
 23 24  1  0     0  0
M  END
> <standard_type>
pIC50

> <# Confs.>
25

> <canonical_smiles>
O=C(O)C1=CN(C2=CC(N3CCNCC3)=C(F)C=C2C1=O)C4CC4

> <standard_relation>
=

> <Publication_ID>
nan

> <predicted_activity_value>
nan

> <actual_activity_value>
-2.9849771264154934

> <Compound>
Ciprofloxacin

> <standard_units>
uM

> hash
14758215286752487971

$$$$
8
XXILIB    08252103503D 0   0.00000     0.00000

 24 27  0     1  0            999 V2000
   -3.0751   -0.0212    4.6371 F   0  0  0  0  0  1           0  0  0
   -4.0621   -0.0585   -0.2370 O   0  0  0  0  0  2           0  0  0
   -1.7420    0.2736   -3.7624 O   0  0  0  0  0  2           0  0  0
   -3.8258    0.1968   -2.8687 O   0  0  0  0  0  2           0  0  0
    0.0000    0.0000    0.0000 N   0  0  1  0  0  3           0  0  0
   -0.2607    0.0180    4.9119 N   0  0  2  0  0  3           0  0  0
    1.3128    1.6923    6.5755 N   0  0  0  0  0  3           0  0  0
   -2.2843   -0.0125    3.5521 C   0  0  0  0  0  4           0  0  0
   -2.8401    0.0034   -0.1772 C   0  0  0  0  0  4           0  0  0
   -0.7521    0.0000    1.2074 C   0  0  0  0  0  4           0  0  0
   -0.6582    0.0896   -1.2117 C   0  0  0  0  0  4           0  0  0
   -0.8868    0.0064    3.6881 C   0  0  0  0  0  4           0  0  0
   -2.1543   -0.0080    1.1422 C   0  0  0  0  0  4           0  0  0
   -1.9868    0.0982   -1.4004 C   0  0  0  0  0  4           0  0  0
   -2.9179   -0.0180    2.3089 C   0  0  0  0  0  4           0  0  0
   -0.1482    0.0141    2.4828 C   0  0  0  0  0  4           0  0  0
   -2.4737    0.1975   -2.7848 C   0  0  0  0  0  4           0  0  0
    1.4649    0.0000   -0.0000 C   0  0  1  0  0  4           0  0  0
   -0.8719    0.6338    6.0919 C   0  0  0  0  0  4           0  0  0
    1.1711   -0.2543    5.0548 C   0  0  0  0  0  4           0  0  0
   -0.1255    1.9323    6.4114 C   0  0  0  0  0  4           0  0  0
    1.8897    1.0569    5.3855 C   0  0  0  0  0  4           0  0  0
    2.2630   -0.6396   -1.1078 C   0  0  0  0  0  4           0  0  0
    2.2651    0.8506   -0.9529 C   0  0  0  0  0  4           0  0  0
  1  8  1  0     0  0
  2  9  2  0     0  0
  3 17  2  0     0  0
  4 17  1  0     0  0
  5 10  1  0     0  0
  5 11  1  0     0  0
  5 18  1  0     0  0
  6 12  1  0     0  0
  6 19  1  0     0  0
  6 20  1  0     0  0
  7 21  1  0     0  0
  7 22  1  0     0  0
  8 12  2  0     0  0
  8 15  1  0     0  0
  9 13  1  0     0  0
  9 14  1  0     0  0
 10 13  1  0     0  0
 10 16  2  0     0  0
 11 14  2  0     0  0
 12 16  1  0     0  0
 13 15  2  0     0  0
 14 17  1  0     0  0
 18 23  1  0     0  0
 18 24  1  0     0  0
 19 21  1  0     0  0
 20 22  1  0     0  0
 23 24  1  0     0  0
M  END
> <standard_type>
pIC50

> <# Confs.>
25

> <canonical_smiles>
O=C(O)C1=CN(C2=CC(N3CCNCC3)=C(F)C=C2C1=O)C4CC4

> <standard_relation>
=

> <Publication_ID>
nan

> <predicted_activity_value>
nan

> <actual_activity_value>
-2.9849771264154934

> <Compound>
Ciprofloxacin

> <standard_units>
uM

> hash
14758215286752487971

$$$$
8
XXILIB    08252103503D 0   0.00000     0.00000

 24 27  0     1  0            999 V2000
   -3.0751   -0.0212    4.6371 F   0  0  0  0  0  1           0  0  0
   -4.0621   -0.0585   -0.2370 O   0  0  0  0  0  2           0  0  0
   -2.7053    1.2559   -3.3531 O   0  0  0  0  0  2           0  0  0
   -2.6416   -1.0117   -3.3719 O   0  0  0  0  0  2           0  0  0
    0.0000    0.0000    0.0000 N   0  0  1  0  0  3           0  0  0
   -0.2559    0.0181    4.9213 N   0  0  2  0  0  3           0  0  0
    1.1688   -0.1106    7.3902 N   0  0  0  0  0  3           0  0  0
   -2.2843   -0.0125    3.5521 C   0  0  0  0  0  4           0  0  0
   -2.8401    0.0034   -0.1772 C   0  0  0  0  0  4           0  0  0
   -0.7521    0.0000    1.2074 C   0  0  0  0  0  4           0  0  0
   -0.6582    0.0896   -1.2117 C   0  0  0  0  0  4           0  0  0
   -0.8868    0.0064    3.6881 C   0  0  0  0  0  4           0  0  0
   -2.1543   -0.0080    1.1422 C   0  0  0  0  0  4           0  0  0
   -1.9868    0.0982   -1.4004 C   0  0  0  0  0  4           0  0  0
   -2.9179   -0.0180    2.3089 C   0  0  0  0  0  4           0  0  0
   -0.1482    0.0141    2.4828 C   0  0  0  0  0  4           0  0  0
   -2.4737    0.1975   -2.7848 C   0  0  0  0  0  4           0  0  0
    1.4649   -0.0000   -0.0000 C   0  0  1  0  0  4           0  0  0
    1.0493    0.6769    5.0493 C   0  0  0  0  0  4           0  0  0
   -0.5568   -1.0440    5.8883 C   0  0  0  0  0  4           0  0  0
    1.3391    1.0398    6.5051 C   0  0  0  0  0  4           0  0  0
   -0.2045   -0.6034    7.3081 C   0  0  0  0  0  4           0  0  0
    2.2630   -1.1078    0.6396 C   0  0  0  0  0  4           0  0  0
    2.2651   -0.9529   -0.8506 C   0  0  0  0  0  4           0  0  0
  1  8  1  0     0  0
  2  9  2  0     0  0
  3 17  2  0     0  0
  4 17  1  0     0  0
  5 10  1  0     0  0
  5 11  1  0     0  0
  5 18  1  0     0  0
  6 12  1  0     0  0
  6 19  1  0     0  0
  6 20  1  0     0  0
  7 21  1  0     0  0
  7 22  1  0     0  0
  8 12  2  0     0  0
  8 15  1  0     0  0
  9 13  1  0     0  0
  9 14  1  0     0  0
 10 13  1  0     0  0
 10 16  2  0     0  0
 11 14  2  0     0  0
 12 16  1  0     0  0
 13 15  2  0     0  0
 14 17  1  0     0  0
 18 23  1  0     0  0
 18 24  1  0     0  0
 19 21  1  0     0  0
 20 22  1  0     0  0
 23 24  1  0     0  0
M  END
> <standard_type>
pIC50

> <# Confs.>
25

> <canonical_smiles>
O=C(O)C1=CN(C2=CC(N3CCNCC3)=C(F)C=C2C1=O)C4CC4

> <standard_relation>
=

> <Publication_ID>
nan

> <predicted_activity_value>
nan

> <actual_activity_value>
-2.9849771264154934

> <Compound>
Ciprofloxacin

> <standard_units>
uM

> hash
14758215286752487971

$$$$
8
XXILIB    08252103503D 0   0.00000     0.00000

 24 27  0     1  0            999 V2000
   -3.0751   -0.0212    4.6371 F   0  0  0  0  0  1           0  0  0
   -4.0621   -0.0585   -0.2370 O   0  0  0  0  0  2           0  0  0
   -2.6943   -0.7686   -3.5022 O   0  0  0  0  0  2           0  0  0
   -2.6543    1.4779   -3.1888 O   0  0  0  0  0  2           0  0  0
    0.0000    0.0000    0.0000 N   0  0  1  0  0  3           0  0  0
   -0.2559    0.0181    4.9213 N   0  0  2  0  0  3           0  0  0
    1.1688   -0.1106    7.3902 N   0  0  0  0  0  3           0  0  0
   -2.2843   -0.0125    3.5521 C   0  0  0  0  0  4           0  0  0
   -2.8401    0.0034   -0.1772 C   0  0  0  0  0  4           0  0  0
   -0.7521    0.0000    1.2074 C   0  0  0  0  0  4           0  0  0
   -0.6582    0.0896   -1.2117 C   0  0  0  0  0  4           0  0  0
   -0.8868    0.0064    3.6881 C   0  0  0  0  0  4           0  0  0
   -2.1543   -0.0080    1.1422 C   0  0  0  0  0  4           0  0  0
   -1.9868    0.0982   -1.4004 C   0  0  0  0  0  4           0  0  0
   -2.9179   -0.0180    2.3089 C   0  0  0  0  0  4           0  0  0
   -0.1482    0.0141    2.4828 C   0  0  0  0  0  4           0  0  0
   -2.4737    0.1975   -2.7848 C   0  0  0  0  0  4           0  0  0
    1.4649   -0.0000   -0.0000 C   0  0  1  0  0  4           0  0  0
    1.0493    0.6769    5.0493 C   0  0  0  0  0  4           0  0  0
   -0.5568   -1.0440    5.8883 C   0  0  0  0  0  4           0  0  0
    1.3391    1.0398    6.5051 C   0  0  0  0  0  4           0  0  0
   -0.2045   -0.6034    7.3081 C   0  0  0  0  0  4           0  0  0
    2.2630   -1.1078    0.6396 C   0  0  0  0  0  4           0  0  0
    2.2651   -0.9529   -0.8506 C   0  0  0  0  0  4           0  0  0
  1  8  1  0     0  0
  2  9  2  0     0  0
  3 17  2  0     0  0
  4 17  1  0     0  0
  5 10  1  0     0  0
  5 11  1  0     0  0
  5 18  1  0     0  0
  6 12  1  0     0  0
  6 19  1  0     0  0
  6 20  1  0     0  0
  7 21  1  0     0  0
  7 22  1  0     0  0
  8 12  2  0     0  0
  8 15  1  0     0  0
  9 13  1  0     0  0
  9 14  1  0     0  0
 10 13  1  0     0  0
 10 16  2  0     0  0
 11 14  2  0     0  0
 12 16  1  0     0  0
 13 15  2  0     0  0
 14 17  1  0     0  0
 18 23  1  0     0  0
 18 24  1  0     0  0
 19 21  1  0     0  0
 20 22  1  0     0  0
 23 24  1  0     0  0
M  END
> <standard_type>
pIC50

> <# Confs.>
25

> <canonical_smiles>
O=C(O)C1=CN(C2=CC(N3CCNCC3)=C(F)C=C2C1=O)C4CC4

> <standard_relation>
=

> <Publication_ID>
nan

> <predicted_activity_value>
nan

> <actual_activity_value>
-2.9849771264154934

> <Compound>
Ciprofloxacin

> <standard_units>
uM

> hash
14758215286752487971

$$$$
8
XXILIB    08252103503D 0   0.00000     0.00000

 24 27  0     1  0            999 V2000
   -3.0751   -0.0212    4.6371 F   0  0  0  0  0  1           0  0  0
   -4.0621   -0.0585   -0.2370 O   0  0  0  0  0  2           0  0  0
   -3.1835    1.1054   -3.1958 O   0  0  0  0  0  2           0  0  0
   -2.0536   -0.8268   -3.5654 O   0  0  0  0  0  2           0  0  0
    0.0000    0.0000    0.0000 N   0  0  1  0  0  3           0  0  0
   -0.2559    0.0181    4.9213 N   0  0  2  0  0  3           0  0  0
    1.1754    0.1861    7.3840 N   0  0  0  0  0  3           0  0  0
   -2.2843   -0.0125    3.5521 C   0  0  0  0  0  4           0  0  0
   -2.8401    0.0034   -0.1772 C   0  0  0  0  0  4           0  0  0
   -0.7521    0.0000    1.2074 C   0  0  0  0  0  4           0  0  0
   -0.6582    0.0896   -1.2117 C   0  0  0  0  0  4           0  0  0
   -0.8868    0.0064    3.6881 C   0  0  0  0  0  4           0  0  0
   -2.1543   -0.0080    1.1422 C   0  0  0  0  0  4           0  0  0
   -1.9868    0.0982   -1.4004 C   0  0  0  0  0  4           0  0  0
   -2.9179   -0.0180    2.3089 C   0  0  0  0  0  4           0  0  0
   -0.1482    0.0141    2.4828 C   0  0  0  0  0  4           0  0  0
   -2.4737    0.1975   -2.7848 C   0  0  0  0  0  4           0  0  0
    1.4649   -0.0000   -0.0000 C   0  0  1  0  0  4           0  0  0
   -0.5162    1.1278    5.8459 C   0  0  0  0  0  4           0  0  0
    1.0233   -0.6841    5.0765 C   0  0  0  0  0  4           0  0  0
   -0.1753    0.7349    7.2827 C   0  0  0  0  0  4           0  0  0
    1.2934   -1.0050    6.5456 C   0  0  0  0  0  4           0  0  0
    2.2630   -1.1078    0.6396 C   0  0  0  0  0  4           0  0  0
    2.2651   -0.9529   -0.8506 C   0  0  0  0  0  4           0  0  0
  1  8  1  0     0  0
  2  9  2  0     0  0
  3 17  2  0     0  0
  4 17  1  0     0  0
  5 10  1  0     0  0
  5 11  1  0     0  0
  5 18  1  0     0  0
  6 12  1  0     0  0
  6 19  1  0     0  0
  6 20  1  0     0  0
  7 21  1  0     0  0
  7 22  1  0     0  0
  8 12  2  0     0  0
  8 15  1  0     0  0
  9 13  1  0     0  0
  9 14  1  0     0  0
 10 13  1  0     0  0
 10 16  2  0     0  0
 11 14  2  0     0  0
 12 16  1  0     0  0
 13 15  2  0     0  0
 14 17  1  0     0  0
 18 23  1  0     0  0
 18 24  1  0     0  0
 19 21  1  0     0  0
 20 22  1  0     0  0
 23 24  1  0     0  0
M  END
> <standard_type>
pIC50

> <# Confs.>
25

> <canonical_smiles>
O=C(O)C1=CN(C2=CC(N3CCNCC3)=C(F)C=C2C1=O)C4CC4

> <standard_relation>
=

> <Publication_ID>
nan

> <predicted_activity_value>
nan

> <actual_activity_value>
-2.9849771264154934

> <Compound>
Ciprofloxacin

> <standard_units>
uM

> hash
14758215286752487971

$$$$
8
XXILIB    08252103503D 0   0.00000     0.00000

 24 27  0     1  0            999 V2000
   -3.0751   -0.0212    4.6371 F   0  0  0  0  0  1           0  0  0
   -4.0621   -0.0585   -0.2370 O   0  0  0  0  0  2           0  0  0
   -3.1739   -0.6479   -3.3249 O   0  0  0  0  0  2           0  0  0
   -2.0646    1.3293   -3.4068 O   0  0  0  0  0  2           0  0  0
    0.0000    0.0000    0.0000 N   0  0  1  0  0  3           0  0  0
   -0.2559    0.0181    4.9213 N   0  0  2  0  0  3           0  0  0
    1.1754    0.1861    7.3840 N   0  0  0  0  0  3           0  0  0
   -2.2843   -0.0125    3.5521 C   0  0  0  0  0  4           0  0  0
   -2.8401    0.0034   -0.1772 C   0  0  0  0  0  4           0  0  0
   -0.7521    0.0000    1.2074 C   0  0  0  0  0  4           0  0  0
   -0.6582    0.0896   -1.2117 C   0  0  0  0  0  4           0  0  0
   -0.8868    0.0064    3.6881 C   0  0  0  0  0  4           0  0  0
   -2.1543   -0.0080    1.1422 C   0  0  0  0  0  4           0  0  0
   -1.9868    0.0982   -1.4004 C   0  0  0  0  0  4           0  0  0
   -2.9179   -0.0180    2.3089 C   0  0  0  0  0  4           0  0  0
   -0.1482    0.0141    2.4828 C   0  0  0  0  0  4           0  0  0
   -2.4737    0.1975   -2.7848 C   0  0  0  0  0  4           0  0  0
    1.4649   -0.0000   -0.0000 C   0  0  1  0  0  4           0  0  0
   -0.5162    1.1278    5.8459 C   0  0  0  0  0  4           0  0  0
    1.0233   -0.6841    5.0765 C   0  0  0  0  0  4           0  0  0
   -0.1753    0.7349    7.2827 C   0  0  0  0  0  4           0  0  0
    1.2934   -1.0050    6.5456 C   0  0  0  0  0  4           0  0  0
    2.2630   -1.1078    0.6396 C   0  0  0  0  0  4           0  0  0
    2.2651   -0.9529   -0.8506 C   0  0  0  0  0  4           0  0  0
  1  8  1  0     0  0
  2  9  2  0     0  0
  3 17  2  0     0  0
  4 17  1  0     0  0
  5 10  1  0     0  0
  5 11  1  0     0  0
  5 18  1  0     0  0
  6 12  1  0     0  0
  6 19  1  0     0  0
  6 20  1  0     0  0
  7 21  1  0     0  0
  7 22  1  0     0  0
  8 12  2  0     0  0
  8 15  1  0     0  0
  9 13  1  0     0  0
  9 14  1  0     0  0
 10 13  1  0     0  0
 10 16  2  0     0  0
 11 14  2  0     0  0
 12 16  1  0     0  0
 13 15  2  0     0  0
 14 17  1  0     0  0
 18 23  1  0     0  0
 18 24  1  0     0  0
 19 21  1  0     0  0
 20 22  1  0     0  0
 23 24  1  0     0  0
M  END
> <standard_type>
pIC50

> <# Confs.>
25

> <canonical_smiles>
O=C(O)C1=CN(C2=CC(N3CCNCC3)=C(F)C=C2C1=O)C4CC4

> <standard_relation>
=

> <Publication_ID>
nan

> <predicted_activity_value>
nan

> <actual_activity_value>
-2.9849771264154934

> <Compound>
Ciprofloxacin

> <standard_units>
uM

> hash
14758215286752487971

$$$$
8
XXILIB    08252103503D 0   0.00000     0.00000

 24 27  0     1  0            999 V2000
   -3.0751   -0.0212    4.6371 F   0  0  0  0  0  1           0  0  0
   -4.0621   -0.0585   -0.2370 O   0  0  0  0  0  2           0  0  0
   -2.7053    1.2559   -3.3531 O   0  0  0  0  0  2           0  0  0
   -2.6416   -1.0117   -3.3719 O   0  0  0  0  0  2           0  0  0
    0.0000    0.0000    0.0000 N   0  0  1  0  0  3           0  0  0
   -0.2607    0.0180    4.9119 N   0  0  2  0  0  3           0  0  0
    1.7421   -1.3482    6.3848 N   0  0  0  0  0  3           0  0  0
   -2.2843   -0.0125    3.5521 C   0  0  0  0  0  4           0  0  0
   -2.8401    0.0034   -0.1772 C   0  0  0  0  0  4           0  0  0
   -0.7521    0.0000    1.2074 C   0  0  0  0  0  4           0  0  0
   -0.6582    0.0896   -1.2117 C   0  0  0  0  0  4           0  0  0
   -0.8868    0.0064    3.6881 C   0  0  0  0  0  4           0  0  0
   -2.1543   -0.0080    1.1422 C   0  0  0  0  0  4           0  0  0
   -1.9868    0.0982   -1.4004 C   0  0  0  0  0  4           0  0  0
   -2.9179   -0.0180    2.3089 C   0  0  0  0  0  4           0  0  0
   -0.1482    0.0141    2.4828 C   0  0  0  0  0  4           0  0  0
   -2.4737    0.1975   -2.7848 C   0  0  0  0  0  4           0  0  0
    1.4649   -0.0000   -0.0000 C   0  0  1  0  0  4           0  0  0
    1.0420    0.6565    5.1126 C   0  0  0  0  0  4           0  0  0
   -0.6568   -0.8836    5.9959 C   0  0  0  0  0  4           0  0  0
    2.1016   -0.4341    5.2946 C   0  0  0  0  0  4           0  0  0
    0.4246   -1.9547    6.1636 C   0  0  0  0  0  4           0  0  0
    2.2630   -1.1078    0.6396 C   0  0  0  0  0  4           0  0  0
    2.2651   -0.9529   -0.8506 C   0  0  0  0  0  4           0  0  0
  1  8  1  0     0  0
  2  9  2  0     0  0
  3 17  2  0     0  0
  4 17  1  0     0  0
  5 10  1  0     0  0
  5 11  1  0     0  0
  5 18  1  0     0  0
  6 12  1  0     0  0
  6 19  1  0     0  0
  6 20  1  0     0  0
  7 21  1  0     0  0
  7 22  1  0     0  0
  8 12  2  0     0  0
  8 15  1  0     0  0
  9 13  1  0     0  0
  9 14  1  0     0  0
 10 13  1  0     0  0
 10 16  2  0     0  0
 11 14  2  0     0  0
 12 16  1  0     0  0
 13 15  2  0     0  0
 14 17  1  0     0  0
 18 23  1  0     0  0
 18 24  1  0     0  0
 19 21  1  0     0  0
 20 22  1  0     0  0
 23 24  1  0     0  0
M  END
> <standard_type>
pIC50

> <# Confs.>
25

> <canonical_smiles>
O=C(O)C1=CN(C2=CC(N3CCNCC3)=C(F)C=C2C1=O)C4CC4

> <standard_relation>
=

> <Publication_ID>
nan

> <predicted_activity_value>
nan

> <actual_activity_value>
-2.9849771264154934

> <Compound>
Ciprofloxacin

> <standard_units>
uM

> hash
14758215286752487971

$$$$
8
XXILIB    08252103503D 0   0.00000     0.00000

 24 27  0     1  0            999 V2000
   -3.0751   -0.0212    4.6371 F   0  0  0  0  0  1           0  0  0
   -4.0621   -0.0585   -0.2370 O   0  0  0  0  0  2           0  0  0
   -2.7053    1.2559   -3.3531 O   0  0  0  0  0  2           0  0  0
   -2.6416   -1.0117   -3.3719 O   0  0  0  0  0  2           0  0  0
    0.0000    0.0000    0.0000 N   0  0  1  0  0  3           0  0  0
   -0.2559    0.0181    4.9213 N   0  0  2  0  0  3           0  0  0
    1.1688   -0.1106    7.3902 N   0  0  0  0  0  3           0  0  0
   -2.2843   -0.0125    3.5521 C   0  0  0  0  0  4           0  0  0
   -2.8401    0.0034   -0.1772 C   0  0  0  0  0  4           0  0  0
   -0.7521    0.0000    1.2074 C   0  0  0  0  0  4           0  0  0
   -0.6582    0.0896   -1.2117 C   0  0  0  0  0  4           0  0  0
   -0.8868    0.0064    3.6881 C   0  0  0  0  0  4           0  0  0
   -2.1543   -0.0080    1.1422 C   0  0  0  0  0  4           0  0  0
   -1.9868    0.0982   -1.4004 C   0  0  0  0  0  4           0  0  0
   -2.9179   -0.0180    2.3089 C   0  0  0  0  0  4           0  0  0
   -0.1482    0.0141    2.4828 C   0  0  0  0  0  4           0  0  0
   -2.4737    0.1975   -2.7848 C   0  0  0  0  0  4           0  0  0
    1.4649    0.0000    0.0000 C   0  0  1  0  0  4           0  0  0
    1.0493    0.6769    5.0493 C   0  0  0  0  0  4           0  0  0
   -0.5568   -1.0440    5.8883 C   0  0  0  0  0  4           0  0  0
    1.3391    1.0398    6.5051 C   0  0  0  0  0  4           0  0  0
   -0.2045   -0.6034    7.3081 C   0  0  0  0  0  4           0  0  0
    2.2630    0.6396   -1.1078 C   0  0  0  0  0  4           0  0  0
    2.2651    1.2506    0.2602 C   0  0  0  0  0  4           0  0  0
  1  8  1  0     0  0
  2  9  2  0     0  0
  3 17  2  0     0  0
  4 17  1  0     0  0
  5 10  1  0     0  0
  5 11  1  0     0  0
  5 18  1  0     0  0
  6 12  1  0     0  0
  6 19  1  0     0  0
  6 20  1  0     0  0
  7 21  1  0     0  0
  7 22  1  0     0  0
  8 12  2  0     0  0
  8 15  1  0     0  0
  9 13  1  0     0  0
  9 14  1  0     0  0
 10 13  1  0     0  0
 10 16  2  0     0  0
 11 14  2  0     0  0
 12 16  1  0     0  0
 13 15  2  0     0  0
 14 17  1  0     0  0
 18 23  1  0     0  0
 18 24  1  0     0  0
 19 21  1  0     0  0
 20 22  1  0     0  0
 23 24  1  0     0  0
M  END
> <standard_type>
pIC50

> <# Confs.>
25

> <canonical_smiles>
O=C(O)C1=CN(C2=CC(N3CCNCC3)=C(F)C=C2C1=O)C4CC4

> <standard_relation>
=

> <Publication_ID>
nan

> <predicted_activity_value>
nan

> <actual_activity_value>
-2.9849771264154934

> <Compound>
Ciprofloxacin

> <standard_units>
uM

> hash
14758215286752487971

$$$$
8
XXILIB    08252103503D 0   0.00000     0.00000

 24 27  0     1  0            999 V2000
   -3.0751   -0.0212    4.6371 F   0  0  0  0  0  1           0  0  0
   -4.0621   -0.0585   -0.2370 O   0  0  0  0  0  2           0  0  0
   -2.6943   -0.7686   -3.5022 O   0  0  0  0  0  2           0  0  0
   -2.6543    1.4779   -3.1888 O   0  0  0  0  0  2           0  0  0
    0.0000    0.0000    0.0000 N   0  0  1  0  0  3           0  0  0
   -0.2607    0.0180    4.9119 N   0  0  2  0  0  3           0  0  0
    1.7421   -1.3482    6.3848 N   0  0  0  0  0  3           0  0  0
   -2.2843   -0.0125    3.5521 C   0  0  0  0  0  4           0  0  0
   -2.8401    0.0034   -0.1772 C   0  0  0  0  0  4           0  0  0
   -0.7521    0.0000    1.2074 C   0  0  0  0  0  4           0  0  0
   -0.6582    0.0896   -1.2117 C   0  0  0  0  0  4           0  0  0
   -0.8868    0.0064    3.6881 C   0  0  0  0  0  4           0  0  0
   -2.1543   -0.0080    1.1422 C   0  0  0  0  0  4           0  0  0
   -1.9868    0.0982   -1.4004 C   0  0  0  0  0  4           0  0  0
   -2.9179   -0.0180    2.3089 C   0  0  0  0  0  4           0  0  0
   -0.1482    0.0141    2.4828 C   0  0  0  0  0  4           0  0  0
   -2.4737    0.1975   -2.7848 C   0  0  0  0  0  4           0  0  0
    1.4649   -0.0000   -0.0000 C   0  0  1  0  0  4           0  0  0
    1.0420    0.6565    5.1126 C   0  0  0  0  0  4           0  0  0
   -0.6568   -0.8836    5.9959 C   0  0  0  0  0  4           0  0  0
    2.1016   -0.4341    5.2946 C   0  0  0  0  0  4           0  0  0
    0.4246   -1.9547    6.1636 C   0  0  0  0  0  4           0  0  0
    2.2630   -1.1078    0.6396 C   0  0  0  0  0  4           0  0  0
    2.2651   -0.9529   -0.8506 C   0  0  0  0  0  4           0  0  0
  1  8  1  0     0  0
  2  9  2  0     0  0
  3 17  2  0     0  0
  4 17  1  0     0  0
  5 10  1  0     0  0
  5 11  1  0     0  0
  5 18  1  0     0  0
  6 12  1  0     0  0
  6 19  1  0     0  0
  6 20  1  0     0  0
  7 21  1  0     0  0
  7 22  1  0     0  0
  8 12  2  0     0  0
  8 15  1  0     0  0
  9 13  1  0     0  0
  9 14  1  0     0  0
 10 13  1  0     0  0
 10 16  2  0     0  0
 11 14  2  0     0  0
 12 16  1  0     0  0
 13 15  2  0     0  0
 14 17  1  0     0  0
 18 23  1  0     0  0
 18 24  1  0     0  0
 19 21  1  0     0  0
 20 22  1  0     0  0
 23 24  1  0     0  0
M  END
> <standard_type>
pIC50

> <# Confs.>
25

> <canonical_smiles>
O=C(O)C1=CN(C2=CC(N3CCNCC3)=C(F)C=C2C1=O)C4CC4

> <standard_relation>
=

> <Publication_ID>
nan

> <predicted_activity_value>
nan

> <actual_activity_value>
-2.9849771264154934

> <Compound>
Ciprofloxacin

> <standard_units>
uM

> hash
14758215286752487971

$$$$
8
XXILIB    08252103503D 0   0.00000     0.00000

 24 27  0     1  0            999 V2000
   -3.0751   -0.0212    4.6371 F   0  0  0  0  0  1           0  0  0
   -4.0621   -0.0585   -0.2370 O   0  0  0  0  0  2           0  0  0
   -1.8731    0.7757   -3.6802 O   0  0  0  0  0  2           0  0  0
   -3.6648   -0.4207   -2.9696 O   0  0  0  0  0  2           0  0  0
    0.0000    0.0000    0.0000 N   0  0  1  0  0  3           0  0  0
   -0.2559    0.0181    4.9213 N   0  0  2  0  0  3           0  0  0
    0.8584   -0.0062    7.5480 N   0  0  0  0  0  3           0  0  0
   -2.2843   -0.0125    3.5521 C   0  0  0  0  0  4           0  0  0
   -2.8401    0.0034   -0.1772 C   0  0  0  0  0  4           0  0  0
   -0.7521    0.0000    1.2074 C   0  0  0  0  0  4           0  0  0
   -0.6582    0.0896   -1.2117 C   0  0  0  0  0  4           0  0  0
   -0.8868    0.0064    3.6881 C   0  0  0  0  0  4           0  0  0
   -2.1543   -0.0080    1.1422 C   0  0  0  0  0  4           0  0  0
   -1.9868    0.0982   -1.4004 C   0  0  0  0  0  4           0  0  0
   -2.9179   -0.0180    2.3089 C   0  0  0  0  0  4           0  0  0
   -0.1482    0.0141    2.4828 C   0  0  0  0  0  4           0  0  0
   -2.4737    0.1975   -2.7848 C   0  0  0  0  0  4           0  0  0
    1.4649    0.0000   -0.0000 C   0  0  1  0  0  4           0  0  0
    0.0861   -1.2581    5.5603 C   0  0  0  0  0  4           0  0  0
   -0.4431    1.1715    5.8090 C   0  0  0  0  0  4           0  0  0
    1.1880   -1.0707    6.6025 C   0  0  0  0  0  4           0  0  0
    0.6856    1.2576    6.8351 C   0  0  0  0  0  4           0  0  0
    2.2630   -1.1078   -0.6396 C   0  0  0  0  0  4           0  0  0
    2.2651    0.2602   -1.2506 C   0  0  0  0  0  4           0  0  0
  1  8  1  0     0  0
  2  9  2  0     0  0
  3 17  2  0     0  0
  4 17  1  0     0  0
  5 10  1  0     0  0
  5 11  1  0     0  0
  5 18  1  0     0  0
  6 12  1  0     0  0
  6 19  1  0     0  0
  6 20  1  0     0  0
  7 21  1  0     0  0
  7 22  1  0     0  0
  8 12  2  0     0  0
  8 15  1  0     0  0
  9 13  1  0     0  0
  9 14  1  0     0  0
 10 13  1  0     0  0
 10 16  2  0     0  0
 11 14  2  0     0  0
 12 16  1  0     0  0
 13 15  2  0     0  0
 14 17  1  0     0  0
 18 23  1  0     0  0
 18 24  1  0     0  0
 19 21  1  0     0  0
 20 22  1  0     0  0
 23 24  1  0     0  0
M  END
> <standard_type>
pIC50

> <# Confs.>
25

> <canonical_smiles>
O=C(O)C1=CN(C2=CC(N3CCNCC3)=C(F)C=C2C1=O)C4CC4

> <standard_relation>
=

> <Publication_ID>
nan

> <predicted_activity_value>
nan

> <actual_activity_value>
-2.9849771264154934

> <Compound>
Ciprofloxacin

> <standard_units>
uM

> hash
14758215286752487971

$$$$
8
XXILIB    08252103503D 0   0.00000     0.00000

 24 27  0     1  0            999 V2000
   -3.0751   -0.0212    4.6371 F   0  0  0  0  0  1           0  0  0
   -4.0621   -0.0585   -0.2370 O   0  0  0  0  0  2           0  0  0
   -2.6943   -0.7686   -3.5022 O   0  0  0  0  0  2           0  0  0
   -2.6543    1.4779   -3.1888 O   0  0  0  0  0  2           0  0  0
    0.0000    0.0000    0.0000 N   0  0  1  0  0  3           0  0  0
   -0.2559    0.0181    4.9213 N   0  0  2  0  0  3           0  0  0
    1.1688   -0.1106    7.3902 N   0  0  0  0  0  3           0  0  0
   -2.2843   -0.0125    3.5521 C   0  0  0  0  0  4           0  0  0
   -2.8401    0.0034   -0.1772 C   0  0  0  0  0  4           0  0  0
   -0.7521    0.0000    1.2074 C   0  0  0  0  0  4           0  0  0
   -0.6582    0.0896   -1.2117 C   0  0  0  0  0  4           0  0  0
   -0.8868    0.0064    3.6881 C   0  0  0  0  0  4           0  0  0
   -2.1543   -0.0080    1.1422 C   0  0  0  0  0  4           0  0  0
   -1.9868    0.0982   -1.4004 C   0  0  0  0  0  4           0  0  0
   -2.9179   -0.0180    2.3089 C   0  0  0  0  0  4           0  0  0
   -0.1482    0.0141    2.4828 C   0  0  0  0  0  4           0  0  0
   -2.4737    0.1975   -2.7848 C   0  0  0  0  0  4           0  0  0
    1.4649    0.0000    0.0000 C   0  0  1  0  0  4           0  0  0
    1.0493    0.6769    5.0493 C   0  0  0  0  0  4           0  0  0
   -0.5568   -1.0440    5.8883 C   0  0  0  0  0  4           0  0  0
    1.3391    1.0398    6.5051 C   0  0  0  0  0  4           0  0  0
   -0.2045   -0.6034    7.3081 C   0  0  0  0  0  4           0  0  0
    2.2630    0.6396   -1.1078 C   0  0  0  0  0  4           0  0  0
    2.2651    1.2506    0.2602 C   0  0  0  0  0  4           0  0  0
  1  8  1  0     0  0
  2  9  2  0     0  0
  3 17  2  0     0  0
  4 17  1  0     0  0
  5 10  1  0     0  0
  5 11  1  0     0  0
  5 18  1  0     0  0
  6 12  1  0     0  0
  6 19  1  0     0  0
  6 20  1  0     0  0
  7 21  1  0     0  0
  7 22  1  0     0  0
  8 12  2  0     0  0
  8 15  1  0     0  0
  9 13  1  0     0  0
  9 14  1  0     0  0
 10 13  1  0     0  0
 10 16  2  0     0  0
 11 14  2  0     0  0
 12 16  1  0     0  0
 13 15  2  0     0  0
 14 17  1  0     0  0
 18 23  1  0     0  0
 18 24  1  0     0  0
 19 21  1  0     0  0
 20 22  1  0     0  0
 23 24  1  0     0  0
M  END
> <standard_type>
pIC50

> <# Confs.>
25

> <canonical_smiles>
O=C(O)C1=CN(C2=CC(N3CCNCC3)=C(F)C=C2C1=O)C4CC4

> <standard_relation>
=

> <Publication_ID>
nan

> <predicted_activity_value>
nan

> <actual_activity_value>
-2.9849771264154934

> <Compound>
Ciprofloxacin

> <standard_units>
uM

> hash
14758215286752487971

$$$$
8
XXILIB    08252103503D 0   0.00000     0.00000

 24 27  0     1  0            999 V2000
   -3.0751   -0.0212    4.6371 F   0  0  0  0  0  1           0  0  0
   -4.0621   -0.0585   -0.2370 O   0  0  0  0  0  2           0  0  0
   -3.1835    1.1054   -3.1958 O   0  0  0  0  0  2           0  0  0
   -2.0536   -0.8268   -3.5654 O   0  0  0  0  0  2           0  0  0
    0.0000    0.0000    0.0000 N   0  0  1  0  0  3           0  0  0
   -0.2559    0.0181    4.9213 N   0  0  2  0  0  3           0  0  0
    1.1754    0.1861    7.3840 N   0  0  0  0  0  3           0  0  0
   -2.2843   -0.0125    3.5521 C   0  0  0  0  0  4           0  0  0
   -2.8401    0.0034   -0.1772 C   0  0  0  0  0  4           0  0  0
   -0.7521    0.0000    1.2074 C   0  0  0  0  0  4           0  0  0
   -0.6582    0.0896   -1.2117 C   0  0  0  0  0  4           0  0  0
   -0.8868    0.0064    3.6881 C   0  0  0  0  0  4           0  0  0
   -2.1543   -0.0080    1.1422 C   0  0  0  0  0  4           0  0  0
   -1.9868    0.0982   -1.4004 C   0  0  0  0  0  4           0  0  0
   -2.9179   -0.0180    2.3089 C   0  0  0  0  0  4           0  0  0
   -0.1482    0.0141    2.4828 C   0  0  0  0  0  4           0  0  0
   -2.4737    0.1975   -2.7848 C   0  0  0  0  0  4           0  0  0
    1.4649    0.0000    0.0000 C   0  0  1  0  0  4           0  0  0
   -0.5162    1.1278    5.8459 C   0  0  0  0  0  4           0  0  0
    1.0233   -0.6841    5.0765 C   0  0  0  0  0  4           0  0  0
   -0.1753    0.7349    7.2827 C   0  0  0  0  0  4           0  0  0
    1.2934   -1.0050    6.5456 C   0  0  0  0  0  4           0  0  0
    2.2630    0.6396   -1.1078 C   0  0  0  0  0  4           0  0  0
    2.2651    1.2506    0.2602 C   0  0  0  0  0  4           0  0  0
  1  8  1  0     0  0
  2  9  2  0     0  0
  3 17  2  0     0  0
  4 17  1  0     0  0
  5 10  1  0     0  0
  5 11  1  0     0  0
  5 18  1  0     0  0
  6 12  1  0     0  0
  6 19  1  0     0  0
  6 20  1  0     0  0
  7 21  1  0     0  0
  7 22  1  0     0  0
  8 12  2  0     0  0
  8 15  1  0     0  0
  9 13  1  0     0  0
  9 14  1  0     0  0
 10 13  1  0     0  0
 10 16  2  0     0  0
 11 14  2  0     0  0
 12 16  1  0     0  0
 13 15  2  0     0  0
 14 17  1  0     0  0
 18 23  1  0     0  0
 18 24  1  0     0  0
 19 21  1  0     0  0
 20 22  1  0     0  0
 23 24  1  0     0  0
M  END
> <standard_type>
pIC50

> <# Confs.>
25

> <canonical_smiles>
O=C(O)C1=CN(C2=CC(N3CCNCC3)=C(F)C=C2C1=O)C4CC4

> <standard_relation>
=

> <Publication_ID>
nan

> <predicted_activity_value>
nan

> <actual_activity_value>
-2.9849771264154934

> <Compound>
Ciprofloxacin

> <standard_units>
uM

> hash
14758215286752487971

$$$$
7
XXILIB    08252103503D 0   0.00000     0.00000

 21 23  0     1  0            999 V2000
   -2.2620   -4.8528    0.7918 Cl  0  0  0  0  0  1           0  0  0
    0.1482   -0.2784    4.3707 S   0  0  0  0  0  2           0  0  0
   -0.5567    0.0000    1.3469 N   0  0  1  0  0  3           0  0  0
    1.8006    1.1220   -2.2942 N   0  0  2  0  0  3           0  0  0
   -1.5956   -3.5869    1.7517 C   0  0  0  0  0  4           0  0  0
   -0.5479   -1.5143    3.2939 C   0  0  0  0  0  4           0  0  0
   -0.1570    1.2173    3.4545 C   0  0  0  0  0  4           0  0  0
   -0.7969   -1.2751    1.9281 C   0  0  0  0  0  4           0  0  0
   -0.4434    1.2144    2.0755 C   0  0  0  0  0  4           0  0  0
   -1.3435   -2.3378    1.1762 C   0  0  0  0  0  4           0  0  0
   -1.3215   -3.8124    3.0927 C   0  0  0  0  0  4           0  0  0
   -0.8016   -2.7761    3.8611 C   0  0  0  0  0  4           0  0  0
   -0.0614    2.4265    4.1660 C   0  0  0  0  0  4           0  0  0
   -0.6699    2.4659    1.4638 C   0  0  0  0  0  4           0  0  0
   -0.2697    3.6451    3.5286 C   0  0  0  0  0  4           0  0  0
   -0.5797    3.6644    2.1772 C   0  0  0  0  0  4           0  0  0
    0.0000    0.0000    0.0000 C   0  0  0  0  0  4           0  0  0
    2.1287    0.0000   -1.4120 C   0  0  0  0  0  4           0  0  0
    2.4613    0.9496   -3.5901 C   0  0  0  0  0  4           0  0  0
    2.1854    2.4074   -1.7065 C   0  0  0  0  0  4           0  0  0
    1.5266   -0.0000   -0.0000 C   0  0  0  0  0  4           0  0  0
  1  5  1  0     0  0
  2  6  1  0     0  0
  2  7  1  0     0  0
  3  8  1  0     0  0
  3  9  1  0     0  0
  3 17  1  0     0  0
  4 18  1  0     0  0
  4 19  1  0     0  0
  4 20  1  0     0  0
  5 10  1  0     0  0
  5 11  2  0     0  0
  6  8  1  0     0  0
  6 12  2  0     0  0
  7  9  1  0     0  0
  7 13  2  0     0  0
  8 10  2  0     0  0
  9 14  2  0     0  0
 11 12  1  0     0  0
 13 15  1  0     0  0
 14 16  1  0     0  0
 15 16  2  0     0  0
 17 21  1  0     0  0
 18 21  1  0     0  0
M  END
> <standard_type>
pIC50

> <# Confs.>
25

> <canonical_smiles>
CN(CCCN1C2=CC=CC=C2SC3=CC=C(Cl)C=C31)C

> <standard_relation>
=

> <Publication_ID>
nan

> <predicted_activity_value>
nan

> <actual_activity_value>
-0.1673173347481761

> <Compound>
Chlorpromazine

> <standard_units>
uM

> hash
7350686322016076969

$$$$
7
XXILIB    08252103503D 0   0.00000     0.00000

 21 23  0     1  0            999 V2000
   -2.2620   -4.8528    0.7918 Cl  0  0  0  0  0  1           0  0  0
    0.1482   -0.2784    4.3707 S   0  0  0  0  0  2           0  0  0
   -0.5567    0.0000    1.3469 N   0  0  1  0  0  3           0  0  0
    1.8006   -1.1220   -2.2942 N   0  0  2  0  0  3           0  0  0
   -1.5956   -3.5869    1.7517 C   0  0  0  0  0  4           0  0  0
   -0.5479   -1.5143    3.2939 C   0  0  0  0  0  4           0  0  0
   -0.1570    1.2173    3.4545 C   0  0  0  0  0  4           0  0  0
   -0.7969   -1.2751    1.9281 C   0  0  0  0  0  4           0  0  0
   -0.4434    1.2144    2.0755 C   0  0  0  0  0  4           0  0  0
   -1.3435   -2.3378    1.1762 C   0  0  0  0  0  4           0  0  0
   -1.3215   -3.8124    3.0927 C   0  0  0  0  0  4           0  0  0
   -0.8016   -2.7761    3.8611 C   0  0  0  0  0  4           0  0  0
   -0.0614    2.4265    4.1660 C   0  0  0  0  0  4           0  0  0
   -0.6699    2.4659    1.4638 C   0  0  0  0  0  4           0  0  0
   -0.2697    3.6451    3.5286 C   0  0  0  0  0  4           0  0  0
   -0.5797    3.6644    2.1772 C   0  0  0  0  0  4           0  0  0
    0.0000    0.0000    0.0000 C   0  0  0  0  0  4           0  0  0
    2.1287    0.0000   -1.4120 C   0  0  0  0  0  4           0  0  0
    2.2518   -2.3795   -1.6935 C   0  0  0  0  0  4           0  0  0
    2.3971   -0.9629   -3.6225 C   0  0  0  0  0  4           0  0  0
    1.5266    0.0000   -0.0000 C   0  0  0  0  0  4           0  0  0
  1  5  1  0     0  0
  2  6  1  0     0  0
  2  7  1  0     0  0
  3  8  1  0     0  0
  3  9  1  0     0  0
  3 17  1  0     0  0
  4 18  1  0     0  0
  4 19  1  0     0  0
  4 20  1  0     0  0
  5 10  1  0     0  0
  5 11  2  0     0  0
  6  8  1  0     0  0
  6 12  2  0     0  0
  7  9  1  0     0  0
  7 13  2  0     0  0
  8 10  2  0     0  0
  9 14  2  0     0  0
 11 12  1  0     0  0
 13 15  1  0     0  0
 14 16  1  0     0  0
 15 16  2  0     0  0
 17 21  1  0     0  0
 18 21  1  0     0  0
M  END
> <standard_type>
pIC50

> <# Confs.>
25

> <canonical_smiles>
CN(CCCN1C2=CC=CC=C2SC3=CC=C(Cl)C=C31)C

> <standard_relation>
=

> <Publication_ID>
nan

> <predicted_activity_value>
nan

> <actual_activity_value>
-0.1673173347481761

> <Compound>
Chlorpromazine

> <standard_units>
uM

> hash
7350686322016076969

$$$$
7
XXILIB    08252103503D 0   0.00000     0.00000

 21 23  0     1  0            999 V2000
    0.3552   -5.1014    1.4927 Cl  0  0  0  0  0  1           0  0  0
   -2.5436   -0.0054    3.7575 S   0  0  0  0  0  2           0  0  0
   -0.5567    0.0000    1.3469 N   0  0  1  0  0  3           0  0  0
    3.5883   -0.0000   -1.5319 N   0  0  2  0  0  3           0  0  0
   -0.4281   -3.6898    2.0948 C   0  0  0  0  0  4           0  0  0
   -1.6656   -1.3865    3.0597 C   0  0  0  0  0  4           0  0  0
   -1.6841    1.3823    3.0507 C   0  0  0  0  0  4           0  0  0
   -0.8060   -1.2640    1.9500 C   0  0  0  0  0  4           0  0  0
   -0.8254    1.2642    1.9404 C   0  0  0  0  0  4           0  0  0
   -0.1868   -2.4504    1.4924 C   0  0  0  0  0  4           0  0  0
   -1.2887   -3.7898    3.1763 C   0  0  0  0  0  4           0  0  0
   -1.9038   -2.6394    3.6567 C   0  0  0  0  0  4           0  0  0
   -1.9366    2.6361    3.6395 C   0  0  0  0  0  4           0  0  0
   -0.2274    2.4568    1.4731 C   0  0  0  0  0  4           0  0  0
   -1.3353    3.7893    3.1486 C   0  0  0  0  0  4           0  0  0
   -0.4780    3.6990    2.0644 C   0  0  0  0  0  4           0  0  0
    0.0000    0.0000    0.0000 C   0  0  0  0  0  4           0  0  0
    2.1287    0.0000   -1.4120 C   0  0  0  0  0  4           0  0  0
    3.9743    0.0000   -2.9450 C   0  0  0  0  0  4           0  0  0
    4.1906   -1.1489   -0.8516 C   0  0  0  0  0  4           0  0  0
    1.5266    0.0000    0.0000 C   0  0  0  0  0  4           0  0  0
  1  5  1  0     0  0
  2  6  1  0     0  0
  2  7  1  0     0  0
  3  8  1  0     0  0
  3  9  1  0     0  0
  3 17  1  0     0  0
  4 18  1  0     0  0
  4 19  1  0     0  0
  4 20  1  0     0  0
  5 10  1  0     0  0
  5 11  2  0     0  0
  6  8  1  0     0  0
  6 12  2  0     0  0
  7  9  1  0     0  0
  7 13  2  0     0  0
  8 10  2  0     0  0
  9 14  2  0     0  0
 11 12  1  0     0  0
 13 15  1  0     0  0
 14 16  1  0     0  0
 15 16  2  0     0  0
 17 21  1  0     0  0
 18 21  1  0     0  0
M  END
> <standard_type>
pIC50

> <# Confs.>
25

> <canonical_smiles>
CN(CCCN1C2=CC=CC=C2SC3=CC=C(Cl)C=C31)C

> <standard_relation>
=

> <Publication_ID>
nan

> <predicted_activity_value>
nan

> <actual_activity_value>
-0.1673173347481761

> <Compound>
Chlorpromazine

> <standard_units>
uM

> hash
7350686322016076969

$$$$
7
XXILIB    08252103503D 0   0.00000     0.00000

 21 23  0     1  0            999 V2000
    0.3923    5.0923    1.5361 Cl  0  0  0  0  0  1           0  0  0
   -2.5685    0.0029    3.7322 S   0  0  0  0  0  2           0  0  0
   -0.5567    0.0000    1.3469 N   0  0  1  0  0  3           0  0  0
    3.5883   -0.0000   -1.5319 N   0  0  2  0  0  3           0  0  0
   -0.4104    3.6834    2.1176 C   0  0  0  0  0  4           0  0  0
   -1.6752    1.3841    3.0541 C   0  0  0  0  0  4           0  0  0
   -1.6853   -1.3822    3.0489 C   0  0  0  0  0  4           0  0  0
   -0.8065    1.2629    1.9513 C   0  0  0  0  0  4           0  0  0
   -0.8189   -1.2632    1.9443 C   0  0  0  0  0  4           0  0  0
   -0.1763    2.4474    1.5053 C   0  0  0  0  0  4           0  0  0
   -1.2785    3.7821    3.1933 C   0  0  0  0  0  4           0  0  0
   -1.9093    2.6339    3.6582 C   0  0  0  0  0  4           0  0  0
   -1.9264   -2.6328    3.6478 C   0  0  0  0  0  4           0  0  0
   -0.2038   -2.4521    1.4908 C   0  0  0  0  0  4           0  0  0
   -1.3061   -3.7820    3.1722 C   0  0  0  0  0  4           0  0  0
   -0.4426   -3.6913    2.0926 C   0  0  0  0  0  4           0  0  0
    0.0000    0.0000   -0.0000 C   0  0  0  0  0  4           0  0  0
    2.1287    0.0000   -1.4120 C   0  0  0  0  0  4           0  0  0
    3.9743    0.0000   -2.9450 C   0  0  0  0  0  4           0  0  0
    4.1906   -1.1489   -0.8516 C   0  0  0  0  0  4           0  0  0
    1.5266    0.0000    0.0000 C   0  0  0  0  0  4           0  0  0
  1  5  1  0     0  0
  2  6  1  0     0  0
  2  7  1  0     0  0
  3  8  1  0     0  0
  3  9  1  0     0  0
  3 17  1  0     0  0
  4 18  1  0     0  0
  4 19  1  0     0  0
  4 20  1  0     0  0
  5 10  1  0     0  0
  5 11  2  0     0  0
  6  8  1  0     0  0
  6 12  2  0     0  0
  7  9  1  0     0  0
  7 13  2  0     0  0
  8 10  2  0     0  0
  9 14  2  0     0  0
 11 12  1  0     0  0
 13 15  1  0     0  0
 14 16  1  0     0  0
 15 16  2  0     0  0
 17 21  1  0     0  0
 18 21  1  0     0  0
M  END
> <standard_type>
pIC50

> <# Confs.>
25

> <canonical_smiles>
CN(CCCN1C2=CC=CC=C2SC3=CC=C(Cl)C=C31)C

> <standard_relation>
=

> <Publication_ID>
nan

> <predicted_activity_value>
nan

> <actual_activity_value>
-0.1673173347481761

> <Compound>
Chlorpromazine

> <standard_units>
uM

> hash
7350686322016076969

$$$$
7
XXILIB    08252103503D 0   0.00000     0.00000

 21 23  0     1  0            999 V2000
    0.7846    4.9708    1.8785 Cl  0  0  0  0  0  1           0  0  0
   -0.6167   -0.6279    4.3815 S   0  0  0  0  0  2           0  0  0
   -0.5567    0.0000    1.3469 N   0  0  1  0  0  3           0  0  0
    3.5883   -1.3267    0.7660 N   0  0  2  0  0  3           0  0  0
    0.3964    3.4299    2.5444 C   0  0  0  0  0  4           0  0  0
   -0.2523    0.9343    3.6029 C   0  0  0  0  0  4           0  0  0
   -1.4958   -1.4710    3.0798 C   0  0  0  0  0  4           0  0  0
   -0.2316    1.0860    2.2018 C   0  0  0  0  0  4           0  0  0
   -1.3706   -1.0970    1.7268 C   0  0  0  0  0  4           0  0  0
    0.0892    2.3635    1.6942 C   0  0  0  0  0  4           0  0  0
    0.3877    3.2580    3.9214 C   0  0  0  0  0  4           0  0  0
    0.0634    2.0118    4.4483 C   0  0  0  0  0  4           0  0  0
   -2.3079   -2.5551    3.4551 C   0  0  0  0  0  4           0  0  0
   -2.1330   -1.8231    0.7875 C   0  0  0  0  0  4           0  0  0
   -3.0273   -3.2660    2.5003 C   0  0  0  0  0  4           0  0  0
   -2.9454   -2.8953    1.1664 C   0  0  0  0  0  4           0  0  0
    0.0000    0.0000    0.0000 C   0  0  0  0  0  4           0  0  0
    2.1287   -1.2228    0.7060 C   0  0  0  0  0  4           0  0  0
    3.9743   -2.5504    1.4725 C   0  0  0  0  0  4           0  0  0
    4.1906   -0.1631    1.4207 C   0  0  0  0  0  4           0  0  0
    1.5266    0.0000   -0.0000 C   0  0  0  0  0  4           0  0  0
  1  5  1  0     0  0
  2  6  1  0     0  0
  2  7  1  0     0  0
  3  8  1  0     0  0
  3  9  1  0     0  0
  3 17  1  0     0  0
  4 18  1  0     0  0
  4 19  1  0     0  0
  4 20  1  0     0  0
  5 10  1  0     0  0
  5 11  2  0     0  0
  6  8  1  0     0  0
  6 12  2  0     0  0
  7  9  1  0     0  0
  7 13  2  0     0  0
  8 10  2  0     0  0
  9 14  2  0     0  0
 11 12  1  0     0  0
 13 15  1  0     0  0
 14 16  1  0     0  0
 15 16  2  0     0  0
 17 21  1  0     0  0
 18 21  1  0     0  0
M  END
> <standard_type>
pIC50

> <# Confs.>
25

> <canonical_smiles>
CN(CCCN1C2=CC=CC=C2SC3=CC=C(Cl)C=C31)C

> <standard_relation>
=

> <Publication_ID>
nan

> <predicted_activity_value>
nan

> <actual_activity_value>
-0.1673173347481761

> <Compound>
Chlorpromazine

> <standard_units>
uM

> hash
7350686322016076969

$$$$
7
XXILIB    08252103503D 0   0.00000     0.00000

 21 23  0     1  0            999 V2000
   -3.9180   -3.6850   -0.0357 Cl  0  0  0  0  0  1           0  0  0
   -0.6237   -0.6516    4.3796 S   0  0  0  0  0  2           0  0  0
   -0.5567    0.0000    1.3469 N   0  0  1  0  0  3           0  0  0
    3.5883   -1.3267    0.7660 N   0  0  2  0  0  3           0  0  0
   -2.9901   -2.8554    1.1553 C   0  0  0  0  0  4           0  0  0
   -1.5133   -1.4717    3.0708 C   0  0  0  0  0  4           0  0  0
   -0.2227    0.9063    3.6113 C   0  0  0  0  0  4           0  0  0
   -1.3893   -1.0855    1.7208 C   0  0  0  0  0  4           0  0  0
   -0.1955    1.0666    2.2116 C   0  0  0  0  0  4           0  0  0
   -2.1705   -1.7873    0.7775 C   0  0  0  0  0  4           0  0  0
   -3.0686   -3.2469    2.4839 C   0  0  0  0  0  4           0  0  0
   -2.3357   -2.5509    3.4396 C   0  0  0  0  0  4           0  0  0
    0.1186    1.9703    4.4639 C   0  0  0  0  0  4           0  0  0
    0.1686    2.3374    1.7167 C   0  0  0  0  0  4           0  0  0
    0.4777    3.2094    3.9437 C   0  0  0  0  0  4           0  0  0
    0.5015    3.3933    2.5690 C   0  0  0  0  0  4           0  0  0
    0.0000   -0.0000    0.0000 C   0  0  0  0  0  4           0  0  0
    2.1287   -1.2228    0.7060 C   0  0  0  0  0  4           0  0  0
    3.9743   -2.5504    1.4725 C   0  0  0  0  0  4           0  0  0
    4.1906   -0.1631    1.4207 C   0  0  0  0  0  4           0  0  0
    1.5266    0.0000   -0.0000 C   0  0  0  0  0  4           0  0  0
  1  5  1  0     0  0
  2  6  1  0     0  0
  2  7  1  0     0  0
  3  8  1  0     0  0
  3  9  1  0     0  0
  3 17  1  0     0  0
  4 18  1  0     0  0
  4 19  1  0     0  0
  4 20  1  0     0  0
  5 10  1  0     0  0
  5 11  2  0     0  0
  6  8  1  0     0  0
  6 12  2  0     0  0
  7  9  1  0     0  0
  7 13  2  0     0  0
  8 10  2  0     0  0
  9 14  2  0     0  0
 11 12  1  0     0  0
 13 15  1  0     0  0
 14 16  1  0     0  0
 15 16  2  0     0  0
 17 21  1  0     0  0
 18 21  1  0     0  0
M  END
> <standard_type>
pIC50

> <# Confs.>
25

> <canonical_smiles>
CN(CCCN1C2=CC=CC=C2SC3=CC=C(Cl)C=C31)C

> <standard_relation>
=

> <Publication_ID>
nan

> <predicted_activity_value>
nan

> <actual_activity_value>
-0.1673173347481761

> <Compound>
Chlorpromazine

> <standard_units>
uM

> hash
7350686322016076969

$$$$
7
XXILIB    08252103503D 0   0.00000     0.00000

 21 23  0     1  0            999 V2000
    0.2018   -5.0967    1.8101 Cl  0  0  0  0  0  1           0  0  0
    0.0531    0.6622    4.3314 S   0  0  0  0  0  2           0  0  0
   -0.5567    0.0000    1.3469 N   0  0  1  0  0  3           0  0  0
    3.5883    1.3267    0.7660 N   0  0  2  0  0  3           0  0  0
    0.1616   -3.5092    2.4780 C   0  0  0  0  0  4           0  0  0
    0.0587   -0.9355    3.5446 C   0  0  0  0  0  4           0  0  0
   -0.8649    1.6414    3.1619 C   0  0  0  0  0  4           0  0  0
   -0.2077   -1.1043    2.1716 C   0  0  0  0  0  4           0  0  0
   -1.0519    1.2432    1.8240 C   0  0  0  0  0  4           0  0  0
   -0.1651   -2.4207    1.6632 C   0  0  0  0  0  4           0  0  0
    0.4451   -3.3216    3.8228 C   0  0  0  0  0  4           0  0  0
    0.3903   -2.0371    4.3537 C   0  0  0  0  0  4           0  0  0
   -1.3727    2.8687    3.6240 C   0  0  0  0  0  4           0  0  0
   -1.8019    2.1055    0.9959 C   0  0  0  0  0  4           0  0  0
   -2.0901    3.7060    2.7762 C   0  0  0  0  0  4           0  0  0
   -2.3096    3.3214    1.4623 C   0  0  0  0  0  4           0  0  0
    0.0000    0.0000    0.0000 C   0  0  0  0  0  4           0  0  0
    2.1287    1.2228    0.7060 C   0  0  0  0  0  4           0  0  0
    4.1435    0.1720    1.4760 C   0  0  0  0  0  4           0  0  0
    4.0197    2.5658    1.4172 C   0  0  0  0  0  4           0  0  0
    1.5266   -0.0000   -0.0000 C   0  0  0  0  0  4           0  0  0
  1  5  1  0     0  0
  2  6  1  0     0  0
  2  7  1  0     0  0
  3  8  1  0     0  0
  3  9  1  0     0  0
  3 17  1  0     0  0
  4 18  1  0     0  0
  4 19  1  0     0  0
  4 20  1  0     0  0
  5 10  1  0     0  0
  5 11  2  0     0  0
  6  8  1  0     0  0
  6 12  2  0     0  0
  7  9  1  0     0  0
  7 13  2  0     0  0
  8 10  2  0     0  0
  9 14  2  0     0  0
 11 12  1  0     0  0
 13 15  1  0     0  0
 14 16  1  0     0  0
 15 16  2  0     0  0
 17 21  1  0     0  0
 18 21  1  0     0  0
M  END
> <standard_type>
pIC50

> <# Confs.>
25

> <canonical_smiles>
CN(CCCN1C2=CC=CC=C2SC3=CC=C(Cl)C=C31)C

> <standard_relation>
=

> <Publication_ID>
nan

> <predicted_activity_value>
nan

> <actual_activity_value>
-0.1673173347481761

> <Compound>
Chlorpromazine

> <standard_units>
uM

> hash
7350686322016076969

$$$$
7
XXILIB    08252103503D 0   0.00000     0.00000

 21 23  0     1  0            999 V2000
   -3.8604    3.7347   -0.0413 Cl  0  0  0  0  0  1           0  0  0
   -0.6242    0.6418    4.3784 S   0  0  0  0  0  2           0  0  0
   -0.5567    0.0000    1.3469 N   0  0  1  0  0  3           0  0  0
    1.8006    1.1220   -2.2942 N   0  0  2  0  0  3           0  0  0
   -2.9671    2.8739    1.1542 C   0  0  0  0  0  4           0  0  0
   -1.5282    1.4570    3.0756 C   0  0  0  0  0  4           0  0  0
   -0.2233   -0.9139    3.6058 C   0  0  0  0  0  4           0  0  0
   -1.3905    1.0860    1.7228 C   0  0  0  0  0  4           0  0  0
   -0.2120   -1.0742    2.2056 C   0  0  0  0  0  4           0  0  0
   -2.1396    1.8136    0.7730 C   0  0  0  0  0  4           0  0  0
   -3.0776    3.2365    2.4891 C   0  0  0  0  0  4           0  0  0
   -2.3590    2.5281    3.4471 C   0  0  0  0  0  4           0  0  0
    0.1128   -1.9817    4.4557 C   0  0  0  0  0  4           0  0  0
    0.0981   -2.3582    1.7096 C   0  0  0  0  0  4           0  0  0
    0.4381   -3.2288    3.9326 C   0  0  0  0  0  4           0  0  0
    0.4238   -3.4192    2.5589 C   0  0  0  0  0  4           0  0  0
    0.0000    0.0000   -0.0000 C   0  0  0  0  0  4           0  0  0
    2.1287    0.0000   -1.4120 C   0  0  0  0  0  4           0  0  0
    2.4613    0.9496   -3.5901 C   0  0  0  0  0  4           0  0  0
    2.1854    2.4074   -1.7065 C   0  0  0  0  0  4           0  0  0
    1.5266   -0.0000   -0.0000 C   0  0  0  0  0  4           0  0  0
  1  5  1  0     0  0
  2  6  1  0     0  0
  2  7  1  0     0  0
  3  8  1  0     0  0
  3  9  1  0     0  0
  3 17  1  0     0  0
  4 18  1  0     0  0
  4 19  1  0     0  0
  4 20  1  0     0  0
  5 10  1  0     0  0
  5 11  2  0     0  0
  6  8  1  0     0  0
  6 12  2  0     0  0
  7  9  1  0     0  0
  7 13  2  0     0  0
  8 10  2  0     0  0
  9 14  2  0     0  0
 11 12  1  0     0  0
 13 15  1  0     0  0
 14 16  1  0     0  0
 15 16  2  0     0  0
 17 21  1  0     0  0
 18 21  1  0     0  0
M  END
> <standard_type>
pIC50

> <# Confs.>
25

> <canonical_smiles>
CN(CCCN1C2=CC=CC=C2SC3=CC=C(Cl)C=C31)C

> <standard_relation>
=

> <Publication_ID>
nan

> <predicted_activity_value>
nan

> <actual_activity_value>
-0.1673173347481761

> <Compound>
Chlorpromazine

> <standard_units>
uM

> hash
7350686322016076969

$$$$
7
XXILIB    08252103503D 0   0.00000     0.00000

 21 23  0     1  0            999 V2000
   -2.2620   -4.8528    0.7918 Cl  0  0  0  0  0  1           0  0  0
    0.1482   -0.2784    4.3707 S   0  0  0  0  0  2           0  0  0
   -0.5567    0.0000    1.3469 N   0  0  1  0  0  3           0  0  0
    3.5883   -0.0000   -1.5319 N   0  0  2  0  0  3           0  0  0
   -1.5956   -3.5869    1.7517 C   0  0  0  0  0  4           0  0  0
   -0.5479   -1.5143    3.2939 C   0  0  0  0  0  4           0  0  0
   -0.1570    1.2173    3.4545 C   0  0  0  0  0  4           0  0  0
   -0.7969   -1.2751    1.9281 C   0  0  0  0  0  4           0  0  0
   -0.4434    1.2144    2.0755 C   0  0  0  0  0  4           0  0  0
   -1.3435   -2.3378    1.1762 C   0  0  0  0  0  4           0  0  0
   -1.3215   -3.8124    3.0927 C   0  0  0  0  0  4           0  0  0
   -0.8016   -2.7761    3.8611 C   0  0  0  0  0  4           0  0  0
   -0.0614    2.4265    4.1660 C   0  0  0  0  0  4           0  0  0
   -0.6699    2.4659    1.4638 C   0  0  0  0  0  4           0  0  0
   -0.2697    3.6451    3.5286 C   0  0  0  0  0  4           0  0  0
   -0.5797    3.6644    2.1772 C   0  0  0  0  0  4           0  0  0
    0.0000    0.0000    0.0000 C   0  0  0  0  0  4           0  0  0
    2.1287    0.0000   -1.4120 C   0  0  0  0  0  4           0  0  0
    3.9743    0.0000   -2.9450 C   0  0  0  0  0  4           0  0  0
    4.1906   -1.1489   -0.8516 C   0  0  0  0  0  4           0  0  0
    1.5266    0.0000    0.0000 C   0  0  0  0  0  4           0  0  0
  1  5  1  0     0  0
  2  6  1  0     0  0
  2  7  1  0     0  0
  3  8  1  0     0  0
  3  9  1  0     0  0
  3 17  1  0     0  0
  4 18  1  0     0  0
  4 19  1  0     0  0
  4 20  1  0     0  0
  5 10  1  0     0  0
  5 11  2  0     0  0
  6  8  1  0     0  0
  6 12  2  0     0  0
  7  9  1  0     0  0
  7 13  2  0     0  0
  8 10  2  0     0  0
  9 14  2  0     0  0
 11 12  1  0     0  0
 13 15  1  0     0  0
 14 16  1  0     0  0
 15 16  2  0     0  0
 17 21  1  0     0  0
 18 21  1  0     0  0
M  END
> <standard_type>
pIC50

> <# Confs.>
25

> <canonical_smiles>
CN(CCCN1C2=CC=CC=C2SC3=CC=C(Cl)C=C31)C

> <standard_relation>
=

> <Publication_ID>
nan

> <predicted_activity_value>
nan

> <actual_activity_value>
-0.1673173347481761

> <Compound>
Chlorpromazine

> <standard_units>
uM

> hash
7350686322016076969

$$$$
7
XXILIB    08252103503D 0   0.00000     0.00000

 21 23  0     1  0            999 V2000
    0.7846    4.9708    1.8785 Cl  0  0  0  0  0  1           0  0  0
   -0.6167   -0.6279    4.3815 S   0  0  0  0  0  2           0  0  0
   -0.5567    0.0000    1.3469 N   0  0  1  0  0  3           0  0  0
    1.8006    1.1220   -2.2942 N   0  0  2  0  0  3           0  0  0
    0.3964    3.4299    2.5444 C   0  0  0  0  0  4           0  0  0
   -0.2523    0.9343    3.6029 C   0  0  0  0  0  4           0  0  0
   -1.4958   -1.4710    3.0798 C   0  0  0  0  0  4           0  0  0
   -0.2316    1.0860    2.2018 C   0  0  0  0  0  4           0  0  0
   -1.3706   -1.0970    1.7268 C   0  0  0  0  0  4           0  0  0
    0.0892    2.3635    1.6942 C   0  0  0  0  0  4           0  0  0
    0.3877    3.2580    3.9214 C   0  0  0  0  0  4           0  0  0
    0.0634    2.0118    4.4483 C   0  0  0  0  0  4           0  0  0
   -2.3079   -2.5551    3.4551 C   0  0  0  0  0  4           0  0  0
   -2.1330   -1.8231    0.7875 C   0  0  0  0  0  4           0  0  0
   -3.0273   -3.2660    2.5003 C   0  0  0  0  0  4           0  0  0
   -2.9454   -2.8953    1.1664 C   0  0  0  0  0  4           0  0  0
    0.0000    0.0000    0.0000 C   0  0  0  0  0  4           0  0  0
    2.1287    0.0000   -1.4120 C   0  0  0  0  0  4           0  0  0
    2.4613    0.9496   -3.5901 C   0  0  0  0  0  4           0  0  0
    2.1854    2.4074   -1.7065 C   0  0  0  0  0  4           0  0  0
    1.5266   -0.0000   -0.0000 C   0  0  0  0  0  4           0  0  0
  1  5  1  0     0  0
  2  6  1  0     0  0
  2  7  1  0     0  0
  3  8  1  0     0  0
  3  9  1  0     0  0
  3 17  1  0     0  0
  4 18  1  0     0  0
  4 19  1  0     0  0
  4 20  1  0     0  0
  5 10  1  0     0  0
  5 11  2  0     0  0
  6  8  1  0     0  0
  6 12  2  0     0  0
  7  9  1  0     0  0
  7 13  2  0     0  0
  8 10  2  0     0  0
  9 14  2  0     0  0
 11 12  1  0     0  0
 13 15  1  0     0  0
 14 16  1  0     0  0
 15 16  2  0     0  0
 17 21  1  0     0  0
 18 21  1  0     0  0
M  END
> <standard_type>
pIC50

> <# Confs.>
25

> <canonical_smiles>
CN(CCCN1C2=CC=CC=C2SC3=CC=C(Cl)C=C31)C

> <standard_relation>
=

> <Publication_ID>
nan

> <predicted_activity_value>
nan

> <actual_activity_value>
-0.1673173347481761

> <Compound>
Chlorpromazine

> <standard_units>
uM

> hash
7350686322016076969

$$$$
7
XXILIB    08252103503D 0   0.00000     0.00000

 21 23  0     1  0            999 V2000
   -3.8604    3.7347   -0.0413 Cl  0  0  0  0  0  1           0  0  0
   -0.6242    0.6418    4.3784 S   0  0  0  0  0  2           0  0  0
   -0.5567    0.0000    1.3469 N   0  0  1  0  0  3           0  0  0
    3.5883    1.3267    0.7660 N   0  0  2  0  0  3           0  0  0
   -2.9671    2.8739    1.1542 C   0  0  0  0  0  4           0  0  0
   -1.5282    1.4570    3.0756 C   0  0  0  0  0  4           0  0  0
   -0.2233   -0.9139    3.6058 C   0  0  0  0  0  4           0  0  0
   -1.3905    1.0860    1.7228 C   0  0  0  0  0  4           0  0  0
   -0.2120   -1.0742    2.2056 C   0  0  0  0  0  4           0  0  0
   -2.1396    1.8136    0.7730 C   0  0  0  0  0  4           0  0  0
   -3.0776    3.2365    2.4891 C   0  0  0  0  0  4           0  0  0
   -2.3590    2.5281    3.4471 C   0  0  0  0  0  4           0  0  0
    0.1128   -1.9817    4.4557 C   0  0  0  0  0  4           0  0  0
    0.0981   -2.3582    1.7096 C   0  0  0  0  0  4           0  0  0
    0.4381   -3.2288    3.9326 C   0  0  0  0  0  4           0  0  0
    0.4238   -3.4192    2.5589 C   0  0  0  0  0  4           0  0  0
    0.0000    0.0000   -0.0000 C   0  0  0  0  0  4           0  0  0
    2.1287    1.2228    0.7060 C   0  0  0  0  0  4           0  0  0
    4.1435    0.1720    1.4760 C   0  0  0  0  0  4           0  0  0
    4.0197    2.5658    1.4172 C   0  0  0  0  0  4           0  0  0
    1.5266   -0.0000   -0.0000 C   0  0  0  0  0  4           0  0  0
  1  5  1  0     0  0
  2  6  1  0     0  0
  2  7  1  0     0  0
  3  8  1  0     0  0
  3  9  1  0     0  0
  3 17  1  0     0  0
  4 18  1  0     0  0
  4 19  1  0     0  0
  4 20  1  0     0  0
  5 10  1  0     0  0
  5 11  2  0     0  0
  6  8  1  0     0  0
  6 12  2  0     0  0
  7  9  1  0     0  0
  7 13  2  0     0  0
  8 10  2  0     0  0
  9 14  2  0     0  0
 11 12  1  0     0  0
 13 15  1  0     0  0
 14 16  1  0     0  0
 15 16  2  0     0  0
 17 21  1  0     0  0
 18 21  1  0     0  0
M  END
> <standard_type>
pIC50

> <# Confs.>
25

> <canonical_smiles>
CN(CCCN1C2=CC=CC=C2SC3=CC=C(Cl)C=C31)C

> <standard_relation>
=

> <Publication_ID>
nan

> <predicted_activity_value>
nan

> <actual_activity_value>
-0.1673173347481761

> <Compound>
Chlorpromazine

> <standard_units>
uM

> hash
7350686322016076969

$$$$
7
XXILIB    08252103503D 0   0.00000     0.00000

 21 23  0     1  0            999 V2000
    0.7846    4.9708    1.8785 Cl  0  0  0  0  0  1           0  0  0
   -0.6167   -0.6279    4.3815 S   0  0  0  0  0  2           0  0  0
   -0.5567    0.0000    1.3469 N   0  0  1  0  0  3           0  0  0
    1.8006   -1.1220   -2.2942 N   0  0  2  0  0  3           0  0  0
    0.3964    3.4299    2.5444 C   0  0  0  0  0  4           0  0  0
   -0.2523    0.9343    3.6029 C   0  0  0  0  0  4           0  0  0
   -1.4958   -1.4710    3.0798 C   0  0  0  0  0  4           0  0  0
   -0.2316    1.0860    2.2018 C   0  0  0  0  0  4           0  0  0
   -1.3706   -1.0970    1.7268 C   0  0  0  0  0  4           0  0  0
    0.0892    2.3635    1.6942 C   0  0  0  0  0  4           0  0  0
    0.3877    3.2580    3.9214 C   0  0  0  0  0  4           0  0  0
    0.0634    2.0118    4.4483 C   0  0  0  0  0  4           0  0  0
   -2.3079   -2.5551    3.4551 C   0  0  0  0  0  4           0  0  0
   -2.1330   -1.8231    0.7875 C   0  0  0  0  0  4           0  0  0
   -3.0273   -3.2660    2.5003 C   0  0  0  0  0  4           0  0  0
   -2.9454   -2.8953    1.1664 C   0  0  0  0  0  4           0  0  0
    0.0000    0.0000    0.0000 C   0  0  0  0  0  4           0  0  0
    2.1287    0.0000   -1.4120 C   0  0  0  0  0  4           0  0  0
    2.2518   -2.3795   -1.6935 C   0  0  0  0  0  4           0  0  0
    2.3971   -0.9629   -3.6225 C   0  0  0  0  0  4           0  0  0
    1.5266    0.0000   -0.0000 C   0  0  0  0  0  4           0  0  0
  1  5  1  0     0  0
  2  6  1  0     0  0
  2  7  1  0     0  0
  3  8  1  0     0  0
  3  9  1  0     0  0
  3 17  1  0     0  0
  4 18  1  0     0  0
  4 19  1  0     0  0
  4 20  1  0     0  0
  5 10  1  0     0  0
  5 11  2  0     0  0
  6  8  1  0     0  0
  6 12  2  0     0  0
  7  9  1  0     0  0
  7 13  2  0     0  0
  8 10  2  0     0  0
  9 14  2  0     0  0
 11 12  1  0     0  0
 13 15  1  0     0  0
 14 16  1  0     0  0
 15 16  2  0     0  0
 17 21  1  0     0  0
 18 21  1  0     0  0
M  END
> <standard_type>
pIC50

> <# Confs.>
25

> <canonical_smiles>
CN(CCCN1C2=CC=CC=C2SC3=CC=C(Cl)C=C31)C

> <standard_relation>
=

> <Publication_ID>
nan

> <predicted_activity_value>
nan

> <actual_activity_value>
-0.1673173347481761

> <Compound>
Chlorpromazine

> <standard_units>
uM

> hash
7350686322016076969

$$$$
7
XXILIB    08252103503D 0   0.00000     0.00000

 21 23  0     1  0            999 V2000
    0.3923    5.0923    1.5361 Cl  0  0  0  0  0  1           0  0  0
   -2.5685    0.0029    3.7322 S   0  0  0  0  0  2           0  0  0
   -0.5567    0.0000    1.3469 N   0  0  1  0  0  3           0  0  0
    1.8006    1.1220   -2.2942 N   0  0  2  0  0  3           0  0  0
   -0.4104    3.6834    2.1176 C   0  0  0  0  0  4           0  0  0
   -1.6752    1.3841    3.0541 C   0  0  0  0  0  4           0  0  0
   -1.6853   -1.3822    3.0489 C   0  0  0  0  0  4           0  0  0
   -0.8065    1.2629    1.9513 C   0  0  0  0  0  4           0  0  0
   -0.8189   -1.2632    1.9443 C   0  0  0  0  0  4           0  0  0
   -0.1763    2.4474    1.5053 C   0  0  0  0  0  4           0  0  0
   -1.2785    3.7821    3.1933 C   0  0  0  0  0  4           0  0  0
   -1.9093    2.6339    3.6582 C   0  0  0  0  0  4           0  0  0
   -1.9264   -2.6328    3.6478 C   0  0  0  0  0  4           0  0  0
   -0.2038   -2.4521    1.4908 C   0  0  0  0  0  4           0  0  0
   -1.3061   -3.7820    3.1722 C   0  0  0  0  0  4           0  0  0
   -0.4426   -3.6913    2.0926 C   0  0  0  0  0  4           0  0  0
    0.0000    0.0000   -0.0000 C   0  0  0  0  0  4           0  0  0
    2.1287    0.0000   -1.4120 C   0  0  0  0  0  4           0  0  0
    2.4613    0.9496   -3.5901 C   0  0  0  0  0  4           0  0  0
    2.1854    2.4074   -1.7065 C   0  0  0  0  0  4           0  0  0
    1.5266   -0.0000   -0.0000 C   0  0  0  0  0  4           0  0  0
  1  5  1  0     0  0
  2  6  1  0     0  0
  2  7  1  0     0  0
  3  8  1  0     0  0
  3  9  1  0     0  0
  3 17  1  0     0  0
  4 18  1  0     0  0
  4 19  1  0     0  0
  4 20  1  0     0  0
  5 10  1  0     0  0
  5 11  2  0     0  0
  6  8  1  0     0  0
  6 12  2  0     0  0
  7  9  1  0     0  0
  7 13  2  0     0  0
  8 10  2  0     0  0
  9 14  2  0     0  0
 11 12  1  0     0  0
 13 15  1  0     0  0
 14 16  1  0     0  0
 15 16  2  0     0  0
 17 21  1  0     0  0
 18 21  1  0     0  0
M  END
> <standard_type>
pIC50

> <# Confs.>
25

> <canonical_smiles>
CN(CCCN1C2=CC=CC=C2SC3=CC=C(Cl)C=C31)C

> <standard_relation>
=

> <Publication_ID>
nan

> <predicted_activity_value>
nan

> <actual_activity_value>
-0.1673173347481761

> <Compound>
Chlorpromazine

> <standard_units>
uM

> hash
7350686322016076969

$$$$
7
XXILIB    08252103503D 0   0.00000     0.00000

 21 23  0     1  0            999 V2000
    0.3552   -5.1014    1.4927 Cl  0  0  0  0  0  1           0  0  0
   -2.5436   -0.0054    3.7575 S   0  0  0  0  0  2           0  0  0
   -0.5567    0.0000    1.3469 N   0  0  1  0  0  3           0  0  0
    1.8006    1.1220   -2.2942 N   0  0  2  0  0  3           0  0  0
   -0.4281   -3.6898    2.0948 C   0  0  0  0  0  4           0  0  0
   -1.6656   -1.3865    3.0597 C   0  0  0  0  0  4           0  0  0
   -1.6841    1.3823    3.0507 C   0  0  0  0  0  4           0  0  0
   -0.8060   -1.2640    1.9500 C   0  0  0  0  0  4           0  0  0
   -0.8254    1.2642    1.9404 C   0  0  0  0  0  4           0  0  0
   -0.1868   -2.4504    1.4924 C   0  0  0  0  0  4           0  0  0
   -1.2887   -3.7898    3.1763 C   0  0  0  0  0  4           0  0  0
   -1.9038   -2.6394    3.6567 C   0  0  0  0  0  4           0  0  0
   -1.9366    2.6361    3.6395 C   0  0  0  0  0  4           0  0  0
   -0.2274    2.4568    1.4731 C   0  0  0  0  0  4           0  0  0
   -1.3353    3.7893    3.1486 C   0  0  0  0  0  4           0  0  0
   -0.4780    3.6990    2.0644 C   0  0  0  0  0  4           0  0  0
    0.0000    0.0000    0.0000 C   0  0  0  0  0  4           0  0  0
    2.1287    0.0000   -1.4120 C   0  0  0  0  0  4           0  0  0
    2.4613    0.9496   -3.5901 C   0  0  0  0  0  4           0  0  0
    2.1854    2.4074   -1.7065 C   0  0  0  0  0  4           0  0  0
    1.5266   -0.0000   -0.0000 C   0  0  0  0  0  4           0  0  0
  1  5  1  0     0  0
  2  6  1  0     0  0
  2  7  1  0     0  0
  3  8  1  0     0  0
  3  9  1  0     0  0
  3 17  1  0     0  0
  4 18  1  0     0  0
  4 19  1  0     0  0
  4 20  1  0     0  0
  5 10  1  0     0  0
  5 11  2  0     0  0
  6  8  1  0     0  0
  6 12  2  0     0  0
  7  9  1  0     0  0
  7 13  2  0     0  0
  8 10  2  0     0  0
  9 14  2  0     0  0
 11 12  1  0     0  0
 13 15  1  0     0  0
 14 16  1  0     0  0
 15 16  2  0     0  0
 17 21  1  0     0  0
 18 21  1  0     0  0
M  END
> <standard_type>
pIC50

> <# Confs.>
25

> <canonical_smiles>
CN(CCCN1C2=CC=CC=C2SC3=CC=C(Cl)C=C31)C

> <standard_relation>
=

> <Publication_ID>
nan

> <predicted_activity_value>
nan

> <actual_activity_value>
-0.1673173347481761

> <Compound>
Chlorpromazine

> <standard_units>
uM

> hash
7350686322016076969

$$$$
7
XXILIB    08252103503D 0   0.00000     0.00000

 21 23  0     1  0            999 V2000
    0.3552   -5.1014    1.4927 Cl  0  0  0  0  0  1           0  0  0
   -2.5436   -0.0054    3.7575 S   0  0  0  0  0  2           0  0  0
   -0.5567    0.0000    1.3469 N   0  0  1  0  0  3           0  0  0
    1.8006   -1.1220   -2.2942 N   0  0  2  0  0  3           0  0  0
   -0.4281   -3.6898    2.0948 C   0  0  0  0  0  4           0  0  0
   -1.6656   -1.3865    3.0597 C   0  0  0  0  0  4           0  0  0
   -1.6841    1.3823    3.0507 C   0  0  0  0  0  4           0  0  0
   -0.8060   -1.2640    1.9500 C   0  0  0  0  0  4           0  0  0
   -0.8254    1.2642    1.9404 C   0  0  0  0  0  4           0  0  0
   -0.1868   -2.4504    1.4924 C   0  0  0  0  0  4           0  0  0
   -1.2887   -3.7898    3.1763 C   0  0  0  0  0  4           0  0  0
   -1.9038   -2.6394    3.6567 C   0  0  0  0  0  4           0  0  0
   -1.9366    2.6361    3.6395 C   0  0  0  0  0  4           0  0  0
   -0.2274    2.4568    1.4731 C   0  0  0  0  0  4           0  0  0
   -1.3353    3.7893    3.1486 C   0  0  0  0  0  4           0  0  0
   -0.4780    3.6990    2.0644 C   0  0  0  0  0  4           0  0  0
    0.0000    0.0000    0.0000 C   0  0  0  0  0  4           0  0  0
    2.1287    0.0000   -1.4120 C   0  0  0  0  0  4           0  0  0
    2.2518   -2.3795   -1.6935 C   0  0  0  0  0  4           0  0  0
    2.3971   -0.9629   -3.6225 C   0  0  0  0  0  4           0  0  0
    1.5266    0.0000   -0.0000 C   0  0  0  0  0  4           0  0  0
  1  5  1  0     0  0
  2  6  1  0     0  0
  2  7  1  0     0  0
  3  8  1  0     0  0
  3  9  1  0     0  0
  3 17  1  0     0  0
  4 18  1  0     0  0
  4 19  1  0     0  0
  4 20  1  0     0  0
  5 10  1  0     0  0
  5 11  2  0     0  0
  6  8  1  0     0  0
  6 12  2  0     0  0
  7  9  1  0     0  0
  7 13  2  0     0  0
  8 10  2  0     0  0
  9 14  2  0     0  0
 11 12  1  0     0  0
 13 15  1  0     0  0
 14 16  1  0     0  0
 15 16  2  0     0  0
 17 21  1  0     0  0
 18 21  1  0     0  0
M  END
> <standard_type>
pIC50

> <# Confs.>
25

> <canonical_smiles>
CN(CCCN1C2=CC=CC=C2SC3=CC=C(Cl)C=C31)C

> <standard_relation>
=

> <Publication_ID>
nan

> <predicted_activity_value>
nan

> <actual_activity_value>
-0.1673173347481761

> <Compound>
Chlorpromazine

> <standard_units>
uM

> hash
7350686322016076969

$$$$
7
XXILIB    08252103503D 0   0.00000     0.00000

 21 23  0     1  0            999 V2000
   -2.2620   -4.8528    0.7918 Cl  0  0  0  0  0  1           0  0  0
    0.1482   -0.2784    4.3707 S   0  0  0  0  0  2           0  0  0
   -0.5567    0.0000    1.3469 N   0  0  1  0  0  3           0  0  0
    1.8006   -2.5478    0.1754 N   0  0  2  0  0  3           0  0  0
   -1.5956   -3.5869    1.7517 C   0  0  0  0  0  4           0  0  0
   -0.5479   -1.5143    3.2939 C   0  0  0  0  0  4           0  0  0
   -0.1570    1.2173    3.4545 C   0  0  0  0  0  4           0  0  0
   -0.7969   -1.2751    1.9281 C   0  0  0  0  0  4           0  0  0
   -0.4434    1.2144    2.0755 C   0  0  0  0  0  4           0  0  0
   -1.3435   -2.3378    1.1762 C   0  0  0  0  0  4           0  0  0
   -1.3215   -3.8124    3.0927 C   0  0  0  0  0  4           0  0  0
   -0.8016   -2.7761    3.8611 C   0  0  0  0  0  4           0  0  0
   -0.0614    2.4265    4.1660 C   0  0  0  0  0  4           0  0  0
   -0.6699    2.4659    1.4638 C   0  0  0  0  0  4           0  0  0
   -0.2697    3.6451    3.5286 C   0  0  0  0  0  4           0  0  0
   -0.5797    3.6644    2.1772 C   0  0  0  0  0  4           0  0  0
    0.0000    0.0000    0.0000 C   0  0  0  0  0  4           0  0  0
    2.1287   -1.2228    0.7060 C   0  0  0  0  0  4           0  0  0
    2.4613   -3.5839    0.9726 C   0  0  0  0  0  4           0  0  0
    2.1854   -2.6816   -1.2316 C   0  0  0  0  0  4           0  0  0
    1.5266    0.0000    0.0000 C   0  0  0  0  0  4           0  0  0
  1  5  1  0     0  0
  2  6  1  0     0  0
  2  7  1  0     0  0
  3  8  1  0     0  0
  3  9  1  0     0  0
  3 17  1  0     0  0
  4 18  1  0     0  0
  4 19  1  0     0  0
  4 20  1  0     0  0
  5 10  1  0     0  0
  5 11  2  0     0  0
  6  8  1  0     0  0
  6 12  2  0     0  0
  7  9  1  0     0  0
  7 13  2  0     0  0
  8 10  2  0     0  0
  9 14  2  0     0  0
 11 12  1  0     0  0
 13 15  1  0     0  0
 14 16  1  0     0  0
 15 16  2  0     0  0
 17 21  1  0     0  0
 18 21  1  0     0  0
M  END
> <standard_type>
pIC50

> <# Confs.>
25

> <canonical_smiles>
CN(CCCN1C2=CC=CC=C2SC3=CC=C(Cl)C=C31)C

> <standard_relation>
=

> <Publication_ID>
nan

> <predicted_activity_value>
nan

> <actual_activity_value>
-0.1673173347481761

> <Compound>
Chlorpromazine

> <standard_units>
uM

> hash
7350686322016076969

$$$$
7
XXILIB    08252103503D 0   0.00000     0.00000

 21 23  0     1  0            999 V2000
    0.3923    5.0923    1.5361 Cl  0  0  0  0  0  1           0  0  0
   -2.5685    0.0029    3.7322 S   0  0  0  0  0  2           0  0  0
   -0.5567    0.0000    1.3469 N   0  0  1  0  0  3           0  0  0
    1.8006   -1.1220   -2.2942 N   0  0  2  0  0  3           0  0  0
   -0.4104    3.6834    2.1176 C   0  0  0  0  0  4           0  0  0
   -1.6752    1.3841    3.0541 C   0  0  0  0  0  4           0  0  0
   -1.6853   -1.3822    3.0489 C   0  0  0  0  0  4           0  0  0
   -0.8065    1.2629    1.9513 C   0  0  0  0  0  4           0  0  0
   -0.8189   -1.2632    1.9443 C   0  0  0  0  0  4           0  0  0
   -0.1763    2.4474    1.5053 C   0  0  0  0  0  4           0  0  0
   -1.2785    3.7821    3.1933 C   0  0  0  0  0  4           0  0  0
   -1.9093    2.6339    3.6582 C   0  0  0  0  0  4           0  0  0
   -1.9264   -2.6328    3.6478 C   0  0  0  0  0  4           0  0  0
   -0.2038   -2.4521    1.4908 C   0  0  0  0  0  4           0  0  0
   -1.3061   -3.7820    3.1722 C   0  0  0  0  0  4           0  0  0
   -0.4426   -3.6913    2.0926 C   0  0  0  0  0  4           0  0  0
    0.0000    0.0000   -0.0000 C   0  0  0  0  0  4           0  0  0
    2.1287    0.0000   -1.4120 C   0  0  0  0  0  4           0  0  0
    2.2518   -2.3795   -1.6935 C   0  0  0  0  0  4           0  0  0
    2.3971   -0.9629   -3.6225 C   0  0  0  0  0  4           0  0  0
    1.5266    0.0000   -0.0000 C   0  0  0  0  0  4           0  0  0
  1  5  1  0     0  0
  2  6  1  0     0  0
  2  7  1  0     0  0
  3  8  1  0     0  0
  3  9  1  0     0  0
  3 17  1  0     0  0
  4 18  1  0     0  0
  4 19  1  0     0  0
  4 20  1  0     0  0
  5 10  1  0     0  0
  5 11  2  0     0  0
  6  8  1  0     0  0
  6 12  2  0     0  0
  7  9  1  0     0  0
  7 13  2  0     0  0
  8 10  2  0     0  0
  9 14  2  0     0  0
 11 12  1  0     0  0
 13 15  1  0     0  0
 14 16  1  0     0  0
 15 16  2  0     0  0
 17 21  1  0     0  0
 18 21  1  0     0  0
M  END
> <standard_type>
pIC50

> <# Confs.>
25

> <canonical_smiles>
CN(CCCN1C2=CC=CC=C2SC3=CC=C(Cl)C=C31)C

> <standard_relation>
=

> <Publication_ID>
nan

> <predicted_activity_value>
nan

> <actual_activity_value>
-0.1673173347481761

> <Compound>
Chlorpromazine

> <standard_units>
uM

> hash
7350686322016076969

$$$$
7
XXILIB    08252103503D 0   0.00000     0.00000

 21 23  0     1  0            999 V2000
    0.7108   -4.9901    1.8775 Cl  0  0  0  0  0  1           0  0  0
   -0.6089    0.6237    4.3857 S   0  0  0  0  0  2           0  0  0
   -0.5567    0.0000    1.3469 N   0  0  1  0  0  3           0  0  0
    3.5883    1.3267    0.7660 N   0  0  2  0  0  3           0  0  0
    0.3682   -3.4386    2.5434 C   0  0  0  0  0  4           0  0  0
   -0.2312   -0.9312    3.6007 C   0  0  0  0  0  4           0  0  0
   -1.4903    1.4696    3.0873 C   0  0  0  0  0  4           0  0  0
   -0.2310   -1.0855    2.1995 C   0  0  0  0  0  4           0  0  0
   -1.3560    1.1084    1.7319 C   0  0  0  0  0  4           0  0  0
    0.0496   -2.3736    1.6951 C   0  0  0  0  0  4           0  0  0
    0.4021   -3.2577    3.9184 C   0  0  0  0  0  4           0  0  0
    0.0963   -2.0071    4.4448 C   0  0  0  0  0  4           0  0  0
   -2.2968    2.5567    3.4656 C   0  0  0  0  0  4           0  0  0
   -2.0771    1.8715    0.7885 C   0  0  0  0  0  4           0  0  0
   -2.9910    3.2916    2.5100 C   0  0  0  0  0  4           0  0  0
   -2.8820    2.9478    1.1706 C   0  0  0  0  0  4           0  0  0
    0.0000    0.0000    0.0000 C   0  0  0  0  0  4           0  0  0
    2.1287    1.2228    0.7060 C   0  0  0  0  0  4           0  0  0
    3.9743    2.5504    1.4725 C   0  0  0  0  0  4           0  0  0
    4.1906    1.3119   -0.5692 C   0  0  0  0  0  4           0  0  0
    1.5266   -0.0000   -0.0000 C   0  0  0  0  0  4           0  0  0
  1  5  1  0     0  0
  2  6  1  0     0  0
  2  7  1  0     0  0
  3  8  1  0     0  0
  3  9  1  0     0  0
  3 17  1  0     0  0
  4 18  1  0     0  0
  4 19  1  0     0  0
  4 20  1  0     0  0
  5 10  1  0     0  0
  5 11  2  0     0  0
  6  8  1  0     0  0
  6 12  2  0     0  0
  7  9  1  0     0  0
  7 13  2  0     0  0
  8 10  2  0     0  0
  9 14  2  0     0  0
 11 12  1  0     0  0
 13 15  1  0     0  0
 14 16  1  0     0  0
 15 16  2  0     0  0
 17 21  1  0     0  0
 18 21  1  0     0  0
M  END
> <standard_type>
pIC50

> <# Confs.>
25

> <canonical_smiles>
CN(CCCN1C2=CC=CC=C2SC3=CC=C(Cl)C=C31)C

> <standard_relation>
=

> <Publication_ID>
nan

> <predicted_activity_value>
nan

> <actual_activity_value>
-0.1673173347481761

> <Compound>
Chlorpromazine

> <standard_units>
uM

> hash
7350686322016076969

$$$$
7
XXILIB    08252103503D 0   0.00000     0.00000

 21 23  0     1  0            999 V2000
   -3.8604    3.7347   -0.0413 Cl  0  0  0  0  0  1           0  0  0
   -0.6242    0.6418    4.3784 S   0  0  0  0  0  2           0  0  0
   -0.5567    0.0000    1.3469 N   0  0  1  0  0  3           0  0  0
    1.8006   -1.1220   -2.2942 N   0  0  2  0  0  3           0  0  0
   -2.9671    2.8739    1.1542 C   0  0  0  0  0  4           0  0  0
   -1.5282    1.4570    3.0756 C   0  0  0  0  0  4           0  0  0
   -0.2233   -0.9139    3.6058 C   0  0  0  0  0  4           0  0  0
   -1.3905    1.0860    1.7228 C   0  0  0  0  0  4           0  0  0
   -0.2120   -1.0742    2.2056 C   0  0  0  0  0  4           0  0  0
   -2.1396    1.8136    0.7730 C   0  0  0  0  0  4           0  0  0
   -3.0776    3.2365    2.4891 C   0  0  0  0  0  4           0  0  0
   -2.3590    2.5281    3.4471 C   0  0  0  0  0  4           0  0  0
    0.1128   -1.9817    4.4557 C   0  0  0  0  0  4           0  0  0
    0.0981   -2.3582    1.7096 C   0  0  0  0  0  4           0  0  0
    0.4381   -3.2288    3.9326 C   0  0  0  0  0  4           0  0  0
    0.4238   -3.4192    2.5589 C   0  0  0  0  0  4           0  0  0
    0.0000    0.0000   -0.0000 C   0  0  0  0  0  4           0  0  0
    2.1287    0.0000   -1.4120 C   0  0  0  0  0  4           0  0  0
    2.2518   -2.3795   -1.6935 C   0  0  0  0  0  4           0  0  0
    2.3971   -0.9629   -3.6225 C   0  0  0  0  0  4           0  0  0
    1.5266    0.0000   -0.0000 C   0  0  0  0  0  4           0  0  0
  1  5  1  0     0  0
  2  6  1  0     0  0
  2  7  1  0     0  0
  3  8  1  0     0  0
  3  9  1  0     0  0
  3 17  1  0     0  0
  4 18  1  0     0  0
  4 19  1  0     0  0
  4 20  1  0     0  0
  5 10  1  0     0  0
  5 11  2  0     0  0
  6  8  1  0     0  0
  6 12  2  0     0  0
  7  9  1  0     0  0
  7 13  2  0     0  0
  8 10  2  0     0  0
  9 14  2  0     0  0
 11 12  1  0     0  0
 13 15  1  0     0  0
 14 16  1  0     0  0
 15 16  2  0     0  0
 17 21  1  0     0  0
 18 21  1  0     0  0
M  END
> <standard_type>
pIC50

> <# Confs.>
25

> <canonical_smiles>
CN(CCCN1C2=CC=CC=C2SC3=CC=C(Cl)C=C31)C

> <standard_relation>
=

> <Publication_ID>
nan

> <predicted_activity_value>
nan

> <actual_activity_value>
-0.1673173347481761

> <Compound>
Chlorpromazine

> <standard_units>
uM

> hash
7350686322016076969

$$$$
7
XXILIB    08252103503D 0   0.00000     0.00000

 21 23  0     1  0            999 V2000
    0.7846    4.9708    1.8785 Cl  0  0  0  0  0  1           0  0  0
   -0.6167   -0.6279    4.3815 S   0  0  0  0  0  2           0  0  0
   -0.5567    0.0000    1.3469 N   0  0  1  0  0  3           0  0  0
    1.8006   -2.5478    0.1754 N   0  0  2  0  0  3           0  0  0
    0.3964    3.4299    2.5444 C   0  0  0  0  0  4           0  0  0
   -0.2523    0.9343    3.6029 C   0  0  0  0  0  4           0  0  0
   -1.4958   -1.4710    3.0798 C   0  0  0  0  0  4           0  0  0
   -0.2316    1.0860    2.2018 C   0  0  0  0  0  4           0  0  0
   -1.3706   -1.0970    1.7268 C   0  0  0  0  0  4           0  0  0
    0.0892    2.3635    1.6942 C   0  0  0  0  0  4           0  0  0
    0.3877    3.2580    3.9214 C   0  0  0  0  0  4           0  0  0
    0.0634    2.0118    4.4483 C   0  0  0  0  0  4           0  0  0
   -2.3079   -2.5551    3.4551 C   0  0  0  0  0  4           0  0  0
   -2.1330   -1.8231    0.7875 C   0  0  0  0  0  4           0  0  0
   -3.0273   -3.2660    2.5003 C   0  0  0  0  0  4           0  0  0
   -2.9454   -2.8953    1.1664 C   0  0  0  0  0  4           0  0  0
    0.0000    0.0000    0.0000 C   0  0  0  0  0  4           0  0  0
    2.1287   -1.2228    0.7060 C   0  0  0  0  0  4           0  0  0
    2.4613   -3.5839    0.9726 C   0  0  0  0  0  4           0  0  0
    2.1854   -2.6816   -1.2316 C   0  0  0  0  0  4           0  0  0
    1.5266    0.0000    0.0000 C   0  0  0  0  0  4           0  0  0
  1  5  1  0     0  0
  2  6  1  0     0  0
  2  7  1  0     0  0
  3  8  1  0     0  0
  3  9  1  0     0  0
  3 17  1  0     0  0
  4 18  1  0     0  0
  4 19  1  0     0  0
  4 20  1  0     0  0
  5 10  1  0     0  0
  5 11  2  0     0  0
  6  8  1  0     0  0
  6 12  2  0     0  0
  7  9  1  0     0  0
  7 13  2  0     0  0
  8 10  2  0     0  0
  9 14  2  0     0  0
 11 12  1  0     0  0
 13 15  1  0     0  0
 14 16  1  0     0  0
 15 16  2  0     0  0
 17 21  1  0     0  0
 18 21  1  0     0  0
M  END
> <standard_type>
pIC50

> <# Confs.>
25

> <canonical_smiles>
CN(CCCN1C2=CC=CC=C2SC3=CC=C(Cl)C=C31)C

> <standard_relation>
=

> <Publication_ID>
nan

> <predicted_activity_value>
nan

> <actual_activity_value>
-0.1673173347481761

> <Compound>
Chlorpromazine

> <standard_units>
uM

> hash
7350686322016076969

$$$$
7
XXILIB    08252103503D 0   0.00000     0.00000

 21 23  0     1  0            999 V2000
    0.2018   -5.0967    1.8101 Cl  0  0  0  0  0  1           0  0  0
    0.0531    0.6622    4.3314 S   0  0  0  0  0  2           0  0  0
   -0.5567    0.0000    1.3469 N   0  0  1  0  0  3           0  0  0
    1.8006    2.5478    0.1754 N   0  0  2  0  0  3           0  0  0
    0.1616   -3.5092    2.4780 C   0  0  0  0  0  4           0  0  0
    0.0587   -0.9355    3.5446 C   0  0  0  0  0  4           0  0  0
   -0.8649    1.6414    3.1619 C   0  0  0  0  0  4           0  0  0
   -0.2077   -1.1043    2.1716 C   0  0  0  0  0  4           0  0  0
   -1.0519    1.2432    1.8240 C   0  0  0  0  0  4           0  0  0
   -0.1651   -2.4207    1.6632 C   0  0  0  0  0  4           0  0  0
    0.4451   -3.3216    3.8228 C   0  0  0  0  0  4           0  0  0
    0.3903   -2.0371    4.3537 C   0  0  0  0  0  4           0  0  0
   -1.3727    2.8687    3.6240 C   0  0  0  0  0  4           0  0  0
   -1.8019    2.1055    0.9959 C   0  0  0  0  0  4           0  0  0
   -2.0901    3.7060    2.7762 C   0  0  0  0  0  4           0  0  0
   -2.3096    3.3214    1.4623 C   0  0  0  0  0  4           0  0  0
    0.0000    0.0000    0.0000 C   0  0  0  0  0  4           0  0  0
    2.1287    1.2228    0.7060 C   0  0  0  0  0  4           0  0  0
    2.2518    2.6564   -1.2140 C   0  0  0  0  0  4           0  0  0
    2.3971    3.6186    0.9774 C   0  0  0  0  0  4           0  0  0
    1.5266    0.0000    0.0000 C   0  0  0  0  0  4           0  0  0
  1  5  1  0     0  0
  2  6  1  0     0  0
  2  7  1  0     0  0
  3  8  1  0     0  0
  3  9  1  0     0  0
  3 17  1  0     0  0
  4 18  1  0     0  0
  4 19  1  0     0  0
  4 20  1  0     0  0
  5 10  1  0     0  0
  5 11  2  0     0  0
  6  8  1  0     0  0
  6 12  2  0     0  0
  7  9  1  0     0  0
  7 13  2  0     0  0
  8 10  2  0     0  0
  9 14  2  0     0  0
 11 12  1  0     0  0
 13 15  1  0     0  0
 14 16  1  0     0  0
 15 16  2  0     0  0
 17 21  1  0     0  0
 18 21  1  0     0  0
M  END
> <standard_type>
pIC50

> <# Confs.>
25

> <canonical_smiles>
CN(CCCN1C2=CC=CC=C2SC3=CC=C(Cl)C=C31)C

> <standard_relation>
=

> <Publication_ID>
nan

> <predicted_activity_value>
nan

> <actual_activity_value>
-0.1673173347481761

> <Compound>
Chlorpromazine

> <standard_units>
uM

> hash
7350686322016076969

$$$$
7
XXILIB    08252103503D 0   0.00000     0.00000

 21 23  0     1  0            999 V2000
   -3.8604    3.7347   -0.0413 Cl  0  0  0  0  0  1           0  0  0
   -0.6242    0.6418    4.3784 S   0  0  0  0  0  2           0  0  0
   -0.5567    0.0000    1.3469 N   0  0  1  0  0  3           0  0  0
    1.8006    2.5478    0.1754 N   0  0  2  0  0  3           0  0  0
   -2.9671    2.8739    1.1542 C   0  0  0  0  0  4           0  0  0
   -1.5282    1.4570    3.0756 C   0  0  0  0  0  4           0  0  0
   -0.2233   -0.9139    3.6058 C   0  0  0  0  0  4           0  0  0
   -1.3905    1.0860    1.7228 C   0  0  0  0  0  4           0  0  0
   -0.2120   -1.0742    2.2056 C   0  0  0  0  0  4           0  0  0
   -2.1396    1.8136    0.7730 C   0  0  0  0  0  4           0  0  0
   -3.0776    3.2365    2.4891 C   0  0  0  0  0  4           0  0  0
   -2.3590    2.5281    3.4471 C   0  0  0  0  0  4           0  0  0
    0.1128   -1.9817    4.4557 C   0  0  0  0  0  4           0  0  0
    0.0981   -2.3582    1.7096 C   0  0  0  0  0  4           0  0  0
    0.4381   -3.2288    3.9326 C   0  0  0  0  0  4           0  0  0
    0.4238   -3.4192    2.5589 C   0  0  0  0  0  4           0  0  0
    0.0000    0.0000   -0.0000 C   0  0  0  0  0  4           0  0  0
    2.1287    1.2228    0.7060 C   0  0  0  0  0  4           0  0  0
    2.2518    2.6564   -1.2140 C   0  0  0  0  0  4           0  0  0
    2.3971    3.6186    0.9774 C   0  0  0  0  0  4           0  0  0
    1.5266    0.0000    0.0000 C   0  0  0  0  0  4           0  0  0
  1  5  1  0     0  0
  2  6  1  0     0  0
  2  7  1  0     0  0
  3  8  1  0     0  0
  3  9  1  0     0  0
  3 17  1  0     0  0
  4 18  1  0     0  0
  4 19  1  0     0  0
  4 20  1  0     0  0
  5 10  1  0     0  0
  5 11  2  0     0  0
  6  8  1  0     0  0
  6 12  2  0     0  0
  7  9  1  0     0  0
  7 13  2  0     0  0
  8 10  2  0     0  0
  9 14  2  0     0  0
 11 12  1  0     0  0
 13 15  1  0     0  0
 14 16  1  0     0  0
 15 16  2  0     0  0
 17 21  1  0     0  0
 18 21  1  0     0  0
M  END
> <standard_type>
pIC50

> <# Confs.>
25

> <canonical_smiles>
CN(CCCN1C2=CC=CC=C2SC3=CC=C(Cl)C=C31)C

> <standard_relation>
=

> <Publication_ID>
nan

> <predicted_activity_value>
nan

> <actual_activity_value>
-0.1673173347481761

> <Compound>
Chlorpromazine

> <standard_units>
uM

> hash
7350686322016076969

$$$$
7
XXILIB    08252103503D 0   0.00000     0.00000

 21 23  0     1  0            999 V2000
    0.7846    4.9708    1.8785 Cl  0  0  0  0  0  1           0  0  0
   -0.6167   -0.6279    4.3815 S   0  0  0  0  0  2           0  0  0
   -0.5567    0.0000    1.3469 N   0  0  1  0  0  3           0  0  0
    3.5883   -0.0000   -1.5319 N   0  0  2  0  0  3           0  0  0
    0.3964    3.4299    2.5444 C   0  0  0  0  0  4           0  0  0
   -0.2523    0.9343    3.6029 C   0  0  0  0  0  4           0  0  0
   -1.4958   -1.4710    3.0798 C   0  0  0  0  0  4           0  0  0
   -0.2316    1.0860    2.2018 C   0  0  0  0  0  4           0  0  0
   -1.3706   -1.0970    1.7268 C   0  0  0  0  0  4           0  0  0
    0.0892    2.3635    1.6942 C   0  0  0  0  0  4           0  0  0
    0.3877    3.2580    3.9214 C   0  0  0  0  0  4           0  0  0
    0.0634    2.0118    4.4483 C   0  0  0  0  0  4           0  0  0
   -2.3079   -2.5551    3.4551 C   0  0  0  0  0  4           0  0  0
   -2.1330   -1.8231    0.7875 C   0  0  0  0  0  4           0  0  0
   -3.0273   -3.2660    2.5003 C   0  0  0  0  0  4           0  0  0
   -2.9454   -2.8953    1.1664 C   0  0  0  0  0  4           0  0  0
    0.0000    0.0000    0.0000 C   0  0  0  0  0  4           0  0  0
    2.1287    0.0000   -1.4120 C   0  0  0  0  0  4           0  0  0
    3.9743    0.0000   -2.9450 C   0  0  0  0  0  4           0  0  0
    4.1906   -1.1489   -0.8516 C   0  0  0  0  0  4           0  0  0
    1.5266    0.0000    0.0000 C   0  0  0  0  0  4           0  0  0
  1  5  1  0     0  0
  2  6  1  0     0  0
  2  7  1  0     0  0
  3  8  1  0     0  0
  3  9  1  0     0  0
  3 17  1  0     0  0
  4 18  1  0     0  0
  4 19  1  0     0  0
  4 20  1  0     0  0
  5 10  1  0     0  0
  5 11  2  0     0  0
  6  8  1  0     0  0
  6 12  2  0     0  0
  7  9  1  0     0  0
  7 13  2  0     0  0
  8 10  2  0     0  0
  9 14  2  0     0  0
 11 12  1  0     0  0
 13 15  1  0     0  0
 14 16  1  0     0  0
 15 16  2  0     0  0
 17 21  1  0     0  0
 18 21  1  0     0  0
M  END
> <standard_type>
pIC50

> <# Confs.>
25

> <canonical_smiles>
CN(CCCN1C2=CC=CC=C2SC3=CC=C(Cl)C=C31)C

> <standard_relation>
=

> <Publication_ID>
nan

> <predicted_activity_value>
nan

> <actual_activity_value>
-0.1673173347481761

> <Compound>
Chlorpromazine

> <standard_units>
uM

> hash
7350686322016076969

$$$$
7
XXILIB    08252103503D 0   0.00000     0.00000

 21 23  0     1  0            999 V2000
    0.2018   -5.0967    1.8101 Cl  0  0  0  0  0  1           0  0  0
    0.0531    0.6622    4.3314 S   0  0  0  0  0  2           0  0  0
   -0.5567    0.0000    1.3469 N   0  0  1  0  0  3           0  0  0
    3.5883   -0.0000   -1.5319 N   0  0  2  0  0  3           0  0  0
    0.1616   -3.5092    2.4780 C   0  0  0  0  0  4           0  0  0
    0.0587   -0.9355    3.5446 C   0  0  0  0  0  4           0  0  0
   -0.8649    1.6414    3.1619 C   0  0  0  0  0  4           0  0  0
   -0.2077   -1.1043    2.1716 C   0  0  0  0  0  4           0  0  0
   -1.0519    1.2432    1.8240 C   0  0  0  0  0  4           0  0  0
   -0.1651   -2.4207    1.6632 C   0  0  0  0  0  4           0  0  0
    0.4451   -3.3216    3.8228 C   0  0  0  0  0  4           0  0  0
    0.3903   -2.0371    4.3537 C   0  0  0  0  0  4           0  0  0
   -1.3727    2.8687    3.6240 C   0  0  0  0  0  4           0  0  0
   -1.8019    2.1055    0.9959 C   0  0  0  0  0  4           0  0  0
   -2.0901    3.7060    2.7762 C   0  0  0  0  0  4           0  0  0
   -2.3096    3.3214    1.4623 C   0  0  0  0  0  4           0  0  0
    0.0000    0.0000    0.0000 C   0  0  0  0  0  4           0  0  0
    2.1287    0.0000   -1.4120 C   0  0  0  0  0  4           0  0  0
    4.1435   -1.1922   -0.8869 C   0  0  0  0  0  4           0  0  0
    4.1827    1.2044   -0.9474 C   0  0  0  0  0  4           0  0  0
    1.5266   -0.0000   -0.0000 C   0  0  0  0  0  4           0  0  0
  1  5  1  0     0  0
  2  6  1  0     0  0
  2  7  1  0     0  0
  3  8  1  0     0  0
  3  9  1  0     0  0
  3 17  1  0     0  0
  4 18  1  0     0  0
  4 19  1  0     0  0
  4 20  1  0     0  0
  5 10  1  0     0  0
  5 11  2  0     0  0
  6  8  1  0     0  0
  6 12  2  0     0  0
  7  9  1  0     0  0
  7 13  2  0     0  0
  8 10  2  0     0  0
  9 14  2  0     0  0
 11 12  1  0     0  0
 13 15  1  0     0  0
 14 16  1  0     0  0
 15 16  2  0     0  0
 17 21  1  0     0  0
 18 21  1  0     0  0
M  END
> <standard_type>
pIC50

> <# Confs.>
25

> <canonical_smiles>
CN(CCCN1C2=CC=CC=C2SC3=CC=C(Cl)C=C31)C

> <standard_relation>
=

> <Publication_ID>
nan

> <predicted_activity_value>
nan

> <actual_activity_value>
-0.1673173347481761

> <Compound>
Chlorpromazine

> <standard_units>
uM

> hash
7350686322016076969

$$$$
7
XXILIB    08252103503D 0   0.00000     0.00000

 21 23  0     1  0            999 V2000
    0.6471    5.0086    1.8511 Cl  0  0  0  0  0  1           0  0  0
   -2.8157    0.0161    3.4736 S   0  0  0  0  0  2           0  0  0
   -0.5567    0.0000    1.3469 N   0  0  1  0  0  3           0  0  0
    3.5883   -0.0000   -1.5319 N   0  0  2  0  0  3           0  0  0
   -0.3051    3.6338    2.2651 C   0  0  0  0  0  4           0  0  0
   -1.8043    1.3873    2.9505 C   0  0  0  0  0  4           0  0  0
   -1.8278   -1.3717    2.9478 C   0  0  0  0  0  4           0  0  0
   -0.8102    1.2534    1.9601 C   0  0  0  0  0  4           0  0  0
   -0.8479   -1.2558    1.9419 C   0  0  0  0  0  4           0  0  0
   -0.0492    2.4023    1.6543 C   0  0  0  0  0  4           0  0  0
   -1.3145    3.7554    3.2089 C   0  0  0  0  0  4           0  0  0
   -2.0576    2.6316    3.5546 C   0  0  0  0  0  4           0  0  0
   -2.1005   -2.6137    3.5467 C   0  0  0  0  0  4           0  0  0
   -0.1509   -2.4300    1.5847 C   0  0  0  0  0  4           0  0  0
   -1.3984   -3.7533    3.1682 C   0  0  0  0  0  4           0  0  0
   -0.4220   -3.6610    2.1873 C   0  0  0  0  0  4           0  0  0
    0.0000    0.0000   -0.0000 C   0  0  0  0  0  4           0  0  0
    2.1287   -0.0000   -1.4120 C   0  0  0  0  0  4           0  0  0
    4.1435    1.1922   -0.8869 C   0  0  0  0  0  4           0  0  0
    4.0197   -0.0555   -2.9306 C   0  0  0  0  0  4           0  0  0
    1.5266    0.0000    0.0000 C   0  0  0  0  0  4           0  0  0
  1  5  1  0     0  0
  2  6  1  0     0  0
  2  7  1  0     0  0
  3  8  1  0     0  0
  3  9  1  0     0  0
  3 17  1  0     0  0
  4 18  1  0     0  0
  4 19  1  0     0  0
  4 20  1  0     0  0
  5 10  1  0     0  0
  5 11  2  0     0  0
  6  8  1  0     0  0
  6 12  2  0     0  0
  7  9  1  0     0  0
  7 13  2  0     0  0
  8 10  2  0     0  0
  9 14  2  0     0  0
 11 12  1  0     0  0
 13 15  1  0     0  0
 14 16  1  0     0  0
 15 16  2  0     0  0
 17 21  1  0     0  0
 18 21  1  0     0  0
M  END
> <standard_type>
pIC50

> <# Confs.>
25

> <canonical_smiles>
CN(CCCN1C2=CC=CC=C2SC3=CC=C(Cl)C=C31)C

> <standard_relation>
=

> <Publication_ID>
nan

> <predicted_activity_value>
nan

> <actual_activity_value>
-0.1673173347481761

> <Compound>
Chlorpromazine

> <standard_units>
uM

> hash
7350686322016076969

$$$$
4
XXILIB    08252103503D 0   0.00000     0.00000

 27 29  0     1  0            999 V2000
   -0.1937   -2.4143   -0.1247 O   0  0  0  0  0  2           0  0  0
    2.0834   -0.0000   -1.3540 N   0  0  1  0  0  3           0  0  0
   -0.6440    0.0000    1.3278 N   0  0  1  0  0  3           0  0  0
    1.8004    1.0277   -2.2317 C   0  0  0  0  0  4           0  0  0
    4.3899   -0.7661   -1.3813 C   0  0  0  0  0  4           0  0  0
    1.5084    2.3301   -1.7807 C   0  0  0  0  0  4           0  0  0
    1.7885    0.8302   -3.6261 C   0  0  0  0  0  4           0  0  0
    4.8996   -1.0876   -0.1159 C   0  0  0  0  0  4           0  0  0
    5.2204   -0.1119   -2.3014 C   0  0  0  0  0  4           0  0  0
    1.2296    3.3754   -2.6691 C   0  0  0  0  0  4           0  0  0
    1.5104    1.8723   -4.5184 C   0  0  0  0  0  4           0  0  0
    6.2178   -0.7722    0.2180 C   0  0  0  0  0  4           0  0  0
    6.5392    0.2016   -1.9664 C   0  0  0  0  0  4           0  0  0
    1.2340    3.1469   -4.0396 C   0  0  0  0  0  4           0  0  0
    7.0374   -0.1294   -0.7077 C   0  0  0  0  0  4           0  0  0
   -0.5074   -1.1984   -0.7983 C   0  0  0  0  0  4           0  0  0
   -0.6360   -3.5831   -0.8093 C   0  0  0  0  0  4           0  0  0
    2.9638   -1.0843   -1.7314 C   0  0  0  0  0  4           0  0  0
    0.0000    0.0000    0.0000 C   0  0  2  0  0  4           0  0  0
    1.5315   -0.0000   -0.0000 C   0  0  0  0  0  4           0  0  0
   -0.2301    1.1112    2.1847 C   0  0  0  0  0  4           0  0  0
   -2.1060    0.0415    1.3238 C   0  0  0  0  0  4           0  0  0
   -0.2610   -4.8364   -0.0223 C   0  0  1  0  0  4           0  0  0
   -1.2239    1.0516    3.3367 C   0  0  0  0  0  4           0  0  0
   -2.4334    0.3039    2.7860 C   0  0  0  0  0  4           0  0  0
   -0.7281   -6.1032   -0.7422 C   0  0  0  0  0  4           0  0  0
    1.2465   -4.8867    0.2158 C   0  0  0  0  0  4           0  0  0
  1 16  1  0     0  0
  1 17  1  0     0  0
  2  4  1  0     0  0
  2 18  1  0     0  0
  2 20  1  0     0  0
  3 19  1  0     0  0
  3 21  1  0     0  0
  3 22  1  0     0  0
  4  6  2  0     0  0
  4  7  1  0     0  0
  5  8  2  0     0  0
  5  9  1  0     0  0
  5 18  1  0     0  0
  6 10  1  0     0  0
  7 11  2  0     0  0
  8 12  1  0     0  0
  9 13  2  0     0  0
 10 14  2  0     0  0
 11 14  1  0     0  0
 12 15  2  0     0  0
 13 15  1  0     0  0
 16 19  1  0     0  0
 17 23  1  0     0  0
 19 20  1  0     0  0
 21 24  1  0     0  0
 22 25  1  0     0  0
 23 26  1  0     0  0
 23 27  1  0     0  0
 24 25  1  0     0  0
M  END
> <standard_type>
pIC50

> <# Confs.>
25

> <canonical_smiles>
CC(C)COCC(CN(CC1=CC=CC=C1)C2=CC=CC=C2)N3CCCC3

> <standard_relation>
=

> <Publication_ID>
nan

> <predicted_activity_value>
nan

> <actual_activity_value>
0.2596373105057561

> <Compound>
Bepridil

> <standard_units>
uM

> hash
4236522717873208673

$$$$
4
XXILIB    08252103503D 0   0.00000     0.00000

 27 29  0     1  0            999 V2000
   -0.1937   -2.4143   -0.1247 O   0  0  0  0  0  2           0  0  0
    2.0834   -0.0000   -1.3540 N   0  0  1  0  0  3           0  0  0
   -0.6440    0.0000    1.3278 N   0  0  1  0  0  3           0  0  0
    1.8004    1.0277   -2.2317 C   0  0  0  0  0  4           0  0  0
    4.3324   -0.5702   -2.0783 C   0  0  0  0  0  4           0  0  0
    1.5084    2.3301   -1.7807 C   0  0  0  0  0  4           0  0  0
    1.7885    0.8302   -3.6261 C   0  0  0  0  0  4           0  0  0
    5.1403   -1.2608   -2.9919 C   0  0  0  0  0  4           0  0  0
    4.8347    0.5869   -1.4675 C   0  0  0  0  0  4           0  0  0
    1.2296    3.3754   -2.6691 C   0  0  0  0  0  4           0  0  0
    1.5104    1.8723   -4.5184 C   0  0  0  0  0  4           0  0  0
    6.4207   -0.7962   -3.2978 C   0  0  0  0  0  4           0  0  0
    6.1150    1.0512   -1.7756 C   0  0  0  0  0  4           0  0  0
    1.2340    3.1469   -4.0396 C   0  0  0  0  0  4           0  0  0
    6.9067    0.3603   -2.6910 C   0  0  0  0  0  4           0  0  0
   -0.5074   -1.1984   -0.7983 C   0  0  0  0  0  4           0  0  0
   -0.6360   -3.5831   -0.8093 C   0  0  0  0  0  4           0  0  0
    2.9638   -1.0843   -1.7314 C   0  0  0  0  0  4           0  0  0
    0.0000    0.0000    0.0000 C   0  0  2  0  0  4           0  0  0
    1.5315   -0.0000   -0.0000 C   0  0  0  0  0  4           0  0  0
   -0.2301    1.1112    2.1847 C   0  0  0  0  0  4           0  0  0
   -2.1060    0.0415    1.3238 C   0  0  0  0  0  4           0  0  0
   -0.2610   -4.8364   -0.0223 C   0  0  1  0  0  4           0  0  0
   -1.2239    1.0516    3.3367 C   0  0  0  0  0  4           0  0  0
   -2.4334    0.3039    2.7860 C   0  0  0  0  0  4           0  0  0
   -0.7281   -6.1032   -0.7422 C   0  0  0  0  0  4           0  0  0
    1.2465   -4.8867    0.2158 C   0  0  0  0  0  4           0  0  0
  1 16  1  0     0  0
  1 17  1  0     0  0
  2  4  1  0     0  0
  2 18  1  0     0  0
  2 20  1  0     0  0
  3 19  1  0     0  0
  3 21  1  0     0  0
  3 22  1  0     0  0
  4  6  2  0     0  0
  4  7  1  0     0  0
  5  8  2  0     0  0
  5  9  1  0     0  0
  5 18  1  0     0  0
  6 10  1  0     0  0
  7 11  2  0     0  0
  8 12  1  0     0  0
  9 13  2  0     0  0
 10 14  2  0     0  0
 11 14  1  0     0  0
 12 15  2  0     0  0
 13 15  1  0     0  0
 16 19  1  0     0  0
 17 23  1  0     0  0
 19 20  1  0     0  0
 21 24  1  0     0  0
 22 25  1  0     0  0
 23 26  1  0     0  0
 23 27  1  0     0  0
 24 25  1  0     0  0
M  END
> <standard_type>
pIC50

> <# Confs.>
25

> <canonical_smiles>
CC(C)COCC(CN(CC1=CC=CC=C1)C2=CC=CC=C2)N3CCCC3

> <standard_relation>
=

> <Publication_ID>
nan

> <predicted_activity_value>
nan

> <actual_activity_value>
0.2596373105057561

> <Compound>
Bepridil

> <standard_units>
uM

> hash
4236522717873208673

$$$$
4
XXILIB    08252103503D 0   0.00000     0.00000

 27 29  0     1  0            999 V2000
   -0.1937   -2.4143   -0.1247 O   0  0  0  0  0  2           0  0  0
    2.0834   -0.0000   -1.3540 N   0  0  1  0  0  3           0  0  0
   -0.6440    0.0000    1.3278 N   0  0  1  0  0  3           0  0  0
    1.8004    1.0277   -2.2317 C   0  0  0  0  0  4           0  0  0
    4.3324   -0.5702   -2.0783 C   0  0  0  0  0  4           0  0  0
    1.1875    0.7921   -3.4782 C   0  0  0  0  0  4           0  0  0
    2.1087    2.3681   -1.9285 C   0  0  0  0  0  4           0  0  0
    5.3080   -0.4194   -1.0833 C   0  0  0  0  0  4           0  0  0
    4.6423   -0.2008   -3.3942 C   0  0  0  0  0  4           0  0  0
    0.8919    1.8335   -4.3657 C   0  0  0  0  0  4           0  0  0
    1.8150    3.4128   -2.8128 C   0  0  0  0  0  4           0  0  0
    6.5725    0.0793   -1.4008 C   0  0  0  0  0  4           0  0  0
    5.9082    0.2964   -3.7105 C   0  0  0  0  0  4           0  0  0
    1.2030    3.1457   -4.0310 C   0  0  0  0  0  4           0  0  0
    6.8727    0.4353   -2.7142 C   0  0  0  0  0  4           0  0  0
   -0.5074   -1.1984   -0.7983 C   0  0  0  0  0  4           0  0  0
   -0.6360   -3.5831   -0.8093 C   0  0  0  0  0  4           0  0  0
    2.9638   -1.0843   -1.7314 C   0  0  0  0  0  4           0  0  0
    0.0000    0.0000    0.0000 C   0  0  2  0  0  4           0  0  0
    1.5315   -0.0000   -0.0000 C   0  0  0  0  0  4           0  0  0
   -0.2301    1.1112    2.1847 C   0  0  0  0  0  4           0  0  0
   -2.1060    0.0415    1.3238 C   0  0  0  0  0  4           0  0  0
   -0.2610   -4.8364   -0.0223 C   0  0  1  0  0  4           0  0  0
   -1.2239    1.0516    3.3367 C   0  0  0  0  0  4           0  0  0
   -2.4334    0.3039    2.7860 C   0  0  0  0  0  4           0  0  0
   -0.7281   -6.1032   -0.7422 C   0  0  0  0  0  4           0  0  0
    1.2465   -4.8867    0.2158 C   0  0  0  0  0  4           0  0  0
  1 16  1  0     0  0
  1 17  1  0     0  0
  2  4  1  0     0  0
  2 18  1  0     0  0
  2 20  1  0     0  0
  3 19  1  0     0  0
  3 21  1  0     0  0
  3 22  1  0     0  0
  4  6  2  0     0  0
  4  7  1  0     0  0
  5  8  2  0     0  0
  5  9  1  0     0  0
  5 18  1  0     0  0
  6 10  1  0     0  0
  7 11  2  0     0  0
  8 12  1  0     0  0
  9 13  2  0     0  0
 10 14  2  0     0  0
 11 14  1  0     0  0
 12 15  2  0     0  0
 13 15  1  0     0  0
 16 19  1  0     0  0
 17 23  1  0     0  0
 19 20  1  0     0  0
 21 24  1  0     0  0
 22 25  1  0     0  0
 23 26  1  0     0  0
 23 27  1  0     0  0
 24 25  1  0     0  0
M  END
> <standard_type>
pIC50

> <# Confs.>
25

> <canonical_smiles>
CC(C)COCC(CN(CC1=CC=CC=C1)C2=CC=CC=C2)N3CCCC3

> <standard_relation>
=

> <Publication_ID>
nan

> <predicted_activity_value>
nan

> <actual_activity_value>
0.2596373105057561

> <Compound>
Bepridil

> <standard_units>
uM

> hash
4236522717873208673

$$$$
4
XXILIB    08252103503D 0   0.00000     0.00000

 27 29  0     1  0            999 V2000
   -0.1937   -2.4143   -0.1247 O   0  0  0  0  0  2           0  0  0
    2.0834   -0.0000   -1.3540 N   0  0  1  0  0  3           0  0  0
   -0.6440    0.0000    1.3278 N   0  0  1  0  0  3           0  0  0
    2.3498    1.1867   -2.0077 C   0  0  0  0  0  4           0  0  0
    3.8439   -1.3984   -2.2774 C   0  0  0  0  0  4           0  0  0
    1.7567    1.5016   -3.2462 C   0  0  0  0  0  4           0  0  0
    3.2292    2.1475   -1.4718 C   0  0  0  0  0  4           0  0  0
    4.7306   -1.9073   -1.3186 C   0  0  0  0  0  4           0  0  0
    4.3509   -0.9737   -3.5130 C   0  0  0  0  0  4           0  0  0
    2.0188    2.7079   -3.9064 C   0  0  0  0  0  4           0  0  0
    3.4943    3.3551   -2.1283 C   0  0  0  0  0  4           0  0  0
    6.0957   -2.0010   -1.5951 C   0  0  0  0  0  4           0  0  0
    5.7163   -1.0695   -3.7887 C   0  0  0  0  0  4           0  0  0
    2.8860    3.6371   -3.3451 C   0  0  0  0  0  4           0  0  0
    6.5877   -1.5838   -2.8303 C   0  0  0  0  0  4           0  0  0
   -0.5074   -1.1984   -0.7983 C   0  0  0  0  0  4           0  0  0
   -0.6360   -3.5831   -0.8093 C   0  0  0  0  0  4           0  0  0
    2.3782   -1.2754   -1.9701 C   0  0  0  0  0  4           0  0  0
    0.0000    0.0000    0.0000 C   0  0  2  0  0  4           0  0  0
    1.5315   -0.0000    0.0000 C   0  0  0  0  0  4           0  0  0
   -0.2301    1.1112    2.1847 C   0  0  0  0  0  4           0  0  0
   -2.1060    0.0415    1.3238 C   0  0  0  0  0  4           0  0  0
   -0.2610   -4.8364   -0.0223 C   0  0  1  0  0  4           0  0  0
   -1.2239    1.0516    3.3367 C   0  0  0  0  0  4           0  0  0
   -2.4334    0.3039    2.7860 C   0  0  0  0  0  4           0  0  0
   -0.7281   -6.1032   -0.7422 C   0  0  0  0  0  4           0  0  0
    1.2465   -4.8867    0.2158 C   0  0  0  0  0  4           0  0  0
  1 16  1  0     0  0
  1 17  1  0     0  0
  2  4  1  0     0  0
  2 18  1  0     0  0
  2 20  1  0     0  0
  3 19  1  0     0  0
  3 21  1  0     0  0
  3 22  1  0     0  0
  4  6  2  0     0  0
  4  7  1  0     0  0
  5  8  2  0     0  0
  5  9  1  0     0  0
  5 18  1  0     0  0
  6 10  1  0     0  0
  7 11  2  0     0  0
  8 12  1  0     0  0
  9 13  2  0     0  0
 10 14  2  0     0  0
 11 14  1  0     0  0
 12 15  2  0     0  0
 13 15  1  0     0  0
 16 19  1  0     0  0
 17 23  1  0     0  0
 19 20  1  0     0  0
 21 24  1  0     0  0
 22 25  1  0     0  0
 23 26  1  0     0  0
 23 27  1  0     0  0
 24 25  1  0     0  0
M  END
> <standard_type>
pIC50

> <# Confs.>
25

> <canonical_smiles>
CC(C)COCC(CN(CC1=CC=CC=C1)C2=CC=CC=C2)N3CCCC3

> <standard_relation>
=

> <Publication_ID>
nan

> <predicted_activity_value>
nan

> <actual_activity_value>
0.2596373105057561

> <Compound>
Bepridil

> <standard_units>
uM

> hash
4236522717873208673

$$$$
4
XXILIB    08252103503D 0   0.00000     0.00000

 27 29  0     1  0            999 V2000
   -1.9210   -1.1249   -0.9625 O   0  0  0  0  0  2           0  0  0
    2.0834   -0.0000   -1.3540 N   0  0  1  0  0  3           0  0  0
   -0.6440    0.0000    1.3278 N   0  0  1  0  0  3           0  0  0
    1.8004    1.0277   -2.2317 C   0  0  0  0  0  4           0  0  0
    4.3899   -0.7661   -1.3813 C   0  0  0  0  0  4           0  0  0
    1.5084    2.3301   -1.7807 C   0  0  0  0  0  4           0  0  0
    1.7885    0.8302   -3.6261 C   0  0  0  0  0  4           0  0  0
    4.8996   -1.0876   -0.1159 C   0  0  0  0  0  4           0  0  0
    5.2204   -0.1119   -2.3014 C   0  0  0  0  0  4           0  0  0
    1.2296    3.3754   -2.6691 C   0  0  0  0  0  4           0  0  0
    1.5104    1.8723   -4.5184 C   0  0  0  0  0  4           0  0  0
    6.2178   -0.7722    0.2180 C   0  0  0  0  0  4           0  0  0
    6.5392    0.2016   -1.9664 C   0  0  0  0  0  4           0  0  0
    1.2340    3.1469   -4.0396 C   0  0  0  0  0  4           0  0  0
    7.0374   -0.1294   -0.7077 C   0  0  0  0  0  4           0  0  0
   -0.5074   -1.1984   -0.7983 C   0  0  0  0  0  4           0  0  0
   -2.4727   -2.2120   -1.7002 C   0  0  0  0  0  4           0  0  0
    2.9638   -1.0843   -1.7314 C   0  0  0  0  0  4           0  0  0
   -0.0000    0.0000    0.0000 C   0  0  2  0  0  4           0  0  0
    1.5315   -0.0000   -0.0000 C   0  0  0  0  0  4           0  0  0
   -0.3716   -1.2020    2.1161 C   0  0  0  0  0  4           0  0  0
   -0.2960    1.1199    2.2018 C   0  0  0  0  0  4           0  0  0
   -3.9860   -2.0557   -1.8291 C   0  0  1  0  0  4           0  0  0
   -0.8836   -0.8332    3.5018 C   0  0  0  0  0  4           0  0  0
   -0.8826    0.6912    3.5382 C   0  0  0  0  0  4           0  0  0
   -4.5974   -3.2147   -2.6190 C   0  0  0  0  0  4           0  0  0
   -4.6322   -1.9547   -0.4493 C   0  0  0  0  0  4           0  0  0
  1 16  1  0     0  0
  1 17  1  0     0  0
  2  4  1  0     0  0
  2 18  1  0     0  0
  2 20  1  0     0  0
  3 19  1  0     0  0
  3 21  1  0     0  0
  3 22  1  0     0  0
  4  6  2  0     0  0
  4  7  1  0     0  0
  5  8  2  0     0  0
  5  9  1  0     0  0
  5 18  1  0     0  0
  6 10  1  0     0  0
  7 11  2  0     0  0
  8 12  1  0     0  0
  9 13  2  0     0  0
 10 14  2  0     0  0
 11 14  1  0     0  0
 12 15  2  0     0  0
 13 15  1  0     0  0
 16 19  1  0     0  0
 17 23  1  0     0  0
 19 20  1  0     0  0
 21 24  1  0     0  0
 22 25  1  0     0  0
 23 26  1  0     0  0
 23 27  1  0     0  0
 24 25  1  0     0  0
M  END
> <standard_type>
pIC50

> <# Confs.>
25

> <canonical_smiles>
CC(C)COCC(CN(CC1=CC=CC=C1)C2=CC=CC=C2)N3CCCC3

> <standard_relation>
=

> <Publication_ID>
nan

> <predicted_activity_value>
nan

> <actual_activity_value>
0.2596373105057561

> <Compound>
Bepridil

> <standard_units>
uM

> hash
4236522717873208673

$$$$
4
XXILIB    08252103503D 0   0.00000     0.00000

 27 29  0     1  0            999 V2000
   -0.1937   -2.4143   -0.1247 O   0  0  0  0  0  2           0  0  0
    2.0834   -0.0000   -1.3540 N   0  0  1  0  0  3           0  0  0
   -0.6440    0.0000    1.3278 N   0  0  1  0  0  3           0  0  0
    1.5080    0.7628   -2.3508 C   0  0  0  0  0  4           0  0  0
    4.5138    0.0071   -1.3308 C   0  0  0  0  0  4           0  0  0
    1.0278    0.1864   -3.5433 C   0  0  0  0  0  4           0  0  0
    1.3695    2.1592   -2.2298 C   0  0  0  0  0  4           0  0  0
    5.0724    0.0297   -0.0455 C   0  0  0  0  0  4           0  0  0
    5.1136    0.7661   -2.3449 C   0  0  0  0  0  4           0  0  0
    0.4363    0.9568   -4.5514 C   0  0  0  0  0  4           0  0  0
    0.7787    2.9336   -3.2351 C   0  0  0  0  0  4           0  0  0
    6.2154    0.7868    0.2170 C   0  0  0  0  0  4           0  0  0
    6.2578    1.5216   -2.0811 C   0  0  0  0  0  4           0  0  0
    0.3086    2.3315   -4.3956 C   0  0  0  0  0  4           0  0  0
    6.8086    1.5309   -0.8010 C   0  0  0  0  0  4           0  0  0
   -0.5074   -1.1984   -0.7983 C   0  0  0  0  0  4           0  0  0
   -0.6360   -3.5831   -0.8093 C   0  0  0  0  0  4           0  0  0
    3.2696   -0.7888   -1.6068 C   0  0  0  0  0  4           0  0  0
    0.0000    0.0000    0.0000 C   0  0  2  0  0  4           0  0  0
    1.5315   -0.0000    0.0000 C   0  0  0  0  0  4           0  0  0
   -0.2301    1.1112    2.1847 C   0  0  0  0  0  4           0  0  0
   -2.1060    0.0415    1.3238 C   0  0  0  0  0  4           0  0  0
   -0.2610   -4.8364   -0.0223 C   0  0  1  0  0  4           0  0  0
   -1.2239    1.0516    3.3367 C   0  0  0  0  0  4           0  0  0
   -2.4334    0.3039    2.7860 C   0  0  0  0  0  4           0  0  0
   -0.7281   -6.1032   -0.7422 C   0  0  0  0  0  4           0  0  0
    1.2465   -4.8867    0.2158 C   0  0  0  0  0  4           0  0  0
  1 16  1  0     0  0
  1 17  1  0     0  0
  2  4  1  0     0  0
  2 18  1  0     0  0
  2 20  1  0     0  0
  3 19  1  0     0  0
  3 21  1  0     0  0
  3 22  1  0     0  0
  4  6  2  0     0  0
  4  7  1  0     0  0
  5  8  2  0     0  0
  5  9  1  0     0  0
  5 18  1  0     0  0
  6 10  1  0     0  0
  7 11  2  0     0  0
  8 12  1  0     0  0
  9 13  2  0     0  0
 10 14  2  0     0  0
 11 14  1  0     0  0
 12 15  2  0     0  0
 13 15  1  0     0  0
 16 19  1  0     0  0
 17 23  1  0     0  0
 19 20  1  0     0  0
 21 24  1  0     0  0
 22 25  1  0     0  0
 23 26  1  0     0  0
 23 27  1  0     0  0
 24 25  1  0     0  0
M  END
> <standard_type>
pIC50

> <# Confs.>
25

> <canonical_smiles>
CC(C)COCC(CN(CC1=CC=CC=C1)C2=CC=CC=C2)N3CCCC3

> <standard_relation>
=

> <Publication_ID>
nan

> <predicted_activity_value>
nan

> <actual_activity_value>
0.2596373105057561

> <Compound>
Bepridil

> <standard_units>
uM

> hash
4236522717873208673

$$$$
4
XXILIB    08252103503D 0   0.00000     0.00000

 27 29  0     1  0            999 V2000
   -0.1937   -2.4143   -0.1247 O   0  0  0  0  0  2           0  0  0
    2.0834    0.0000   -1.3540 N   0  0  1  0  0  3           0  0  0
   -0.6440    0.0000    1.3278 N   0  0  1  0  0  3           0  0  0
    2.3498    1.1867   -2.0077 C   0  0  0  0  0  4           0  0  0
    3.8439   -1.3984   -2.2774 C   0  0  0  0  0  4           0  0  0
    2.3130    1.2850   -3.4126 C   0  0  0  0  0  4           0  0  0
    2.6728    2.3641   -1.3055 C   0  0  0  0  0  4           0  0  0
    4.2821   -2.1982   -3.3418 C   0  0  0  0  0  4           0  0  0
    4.7957   -0.7443   -1.4834 C   0  0  0  0  0  4           0  0  0
    2.5743    2.4892   -4.0769 C   0  0  0  0  0  4           0  0  0
    2.9348    3.5705   -1.9654 C   0  0  0  0  0  4           0  0  0
    5.6447   -2.3309   -3.6140 C   0  0  0  0  0  4           0  0  0
    6.1582   -0.8767   -1.7580 C   0  0  0  0  0  4           0  0  0
    2.8823    3.6340   -3.3522 C   0  0  0  0  0  4           0  0  0
    6.5820   -1.6690   -2.8234 C   0  0  0  0  0  4           0  0  0
   -0.5074   -1.1984   -0.7983 C   0  0  0  0  0  4           0  0  0
   -0.6360   -3.5831   -0.8093 C   0  0  0  0  0  4           0  0  0
    2.3782   -1.2754   -1.9701 C   0  0  0  0  0  4           0  0  0
    0.0000    0.0000    0.0000 C   0  0  2  0  0  4           0  0  0
    1.5315    0.0000    0.0000 C   0  0  0  0  0  4           0  0  0
   -0.2301    1.1112    2.1847 C   0  0  0  0  0  4           0  0  0
   -2.1060    0.0415    1.3238 C   0  0  0  0  0  4           0  0  0
   -0.2610   -4.8364   -0.0223 C   0  0  1  0  0  4           0  0  0
   -1.2239    1.0516    3.3367 C   0  0  0  0  0  4           0  0  0
   -2.4334    0.3039    2.7860 C   0  0  0  0  0  4           0  0  0
   -0.7281   -6.1032   -0.7422 C   0  0  0  0  0  4           0  0  0
    1.2465   -4.8867    0.2158 C   0  0  0  0  0  4           0  0  0
  1 16  1  0     0  0
  1 17  1  0     0  0
  2  4  1  0     0  0
  2 18  1  0     0  0
  2 20  1  0     0  0
  3 19  1  0     0  0
  3 21  1  0     0  0
  3 22  1  0     0  0
  4  6  2  0     0  0
  4  7  1  0     0  0
  5  8  2  0     0  0
  5  9  1  0     0  0
  5 18  1  0     0  0
  6 10  1  0     0  0
  7 11  2  0     0  0
  8 12  1  0     0  0
  9 13  2  0     0  0
 10 14  2  0     0  0
 11 14  1  0     0  0
 12 15  2  0     0  0
 13 15  1  0     0  0
 16 19  1  0     0  0
 17 23  1  0     0  0
 19 20  1  0     0  0
 21 24  1  0     0  0
 22 25  1  0     0  0
 23 26  1  0     0  0
 23 27  1  0     0  0
 24 25  1  0     0  0
M  END
> <standard_type>
pIC50

> <# Confs.>
25

> <canonical_smiles>
CC(C)COCC(CN(CC1=CC=CC=C1)C2=CC=CC=C2)N3CCCC3

> <standard_relation>
=

> <Publication_ID>
nan

> <predicted_activity_value>
nan

> <actual_activity_value>
0.2596373105057561

> <Compound>
Bepridil

> <standard_units>
uM

> hash
4236522717873208673

$$$$
4
XXILIB    08252103503D 0   0.00000     0.00000

 27 29  0     1  0            999 V2000
    0.0961   -1.2285   -2.0889 O   0  0  0  0  0  2           0  0  0
    2.0834   -1.1726    0.6770 N   0  0  1  0  0  3           0  0  0
   -0.6440    0.0000    1.3278 N   0  0  1  0  0  3           0  0  0
    2.3498   -1.1454    2.0315 C   0  0  0  0  0  4           0  0  0
    3.7448   -2.7906   -0.0505 C   0  0  0  0  0  4           0  0  0
    1.6984   -2.0092    2.9340 C   0  0  0  0  0  4           0  0  0
    3.2879   -0.2525    2.5852 C   0  0  0  0  0  4           0  0  0
    4.2002   -3.6386    0.9684 C   0  0  0  0  0  4           0  0  0
    4.6619   -2.3133   -0.9967 C   0  0  0  0  0  4           0  0  0
    1.9734   -1.9891    4.3064 C   0  0  0  0  0  4           0  0  0
    3.5662   -0.2288    3.9569 C   0  0  0  0  0  4           0  0  0
    5.5439   -4.0116    1.0320 C   0  0  0  0  0  4           0  0  0
    6.0052   -2.6885   -0.9326 C   0  0  0  0  0  4           0  0  0
    2.9108   -1.1002    4.8179 C   0  0  0  0  0  4           0  0  0
    6.4454   -3.5379    0.0808 C   0  0  0  0  0  4           0  0  0
   -0.5074   -1.1984   -0.7983 C   0  0  0  0  0  4           0  0  0
   -0.3279   -2.3222   -2.8979 C   0  0  0  0  0  4           0  0  0
    2.3032   -2.3703   -0.1042 C   0  0  0  0  0  4           0  0  0
    0.0000    0.0000    0.0000 C   0  0  2  0  0  4           0  0  0
    1.5315    0.0000    0.0000 C   0  0  0  0  0  4           0  0  0
   -0.2301    1.1112    2.1847 C   0  0  0  0  0  4           0  0  0
   -2.1060    0.0415    1.3238 C   0  0  0  0  0  4           0  0  0
    0.3640   -2.2792   -4.2582 C   0  0  1  0  0  4           0  0  0
   -1.2239    1.0516    3.3367 C   0  0  0  0  0  4           0  0  0
   -2.4334    0.3039    2.7860 C   0  0  0  0  0  4           0  0  0
   -0.0789   -3.4469   -5.1423 C   0  0  0  0  0  4           0  0  0
    0.0870   -0.9499   -4.9568 C   0  0  0  0  0  4           0  0  0
  1 16  1  0     0  0
  1 17  1  0     0  0
  2  4  1  0     0  0
  2 18  1  0     0  0
  2 20  1  0     0  0
  3 19  1  0     0  0
  3 21  1  0     0  0
  3 22  1  0     0  0
  4  6  2  0     0  0
  4  7  1  0     0  0
  5  8  2  0     0  0
  5  9  1  0     0  0
  5 18  1  0     0  0
  6 10  1  0     0  0
  7 11  2  0     0  0
  8 12  1  0     0  0
  9 13  2  0     0  0
 10 14  2  0     0  0
 11 14  1  0     0  0
 12 15  2  0     0  0
 13 15  1  0     0  0
 16 19  1  0     0  0
 17 23  1  0     0  0
 19 20  1  0     0  0
 21 24  1  0     0  0
 22 25  1  0     0  0
 23 26  1  0     0  0
 23 27  1  0     0  0
 24 25  1  0     0  0
M  END
> <standard_type>
pIC50

> <# Confs.>
25

> <canonical_smiles>
CC(C)COCC(CN(CC1=CC=CC=C1)C2=CC=CC=C2)N3CCCC3

> <standard_relation>
=

> <Publication_ID>
nan

> <predicted_activity_value>
nan

> <actual_activity_value>
0.2596373105057561

> <Compound>
Bepridil

> <standard_units>
uM

> hash
4236522717873208673

$$$$
4
XXILIB    08252103503D 0   0.00000     0.00000

 27 29  0     1  0            999 V2000
   -0.1937   -2.4143   -0.1247 O   0  0  0  0  0  2           0  0  0
    2.0834    0.0000   -1.3540 N   0  0  1  0  0  3           0  0  0
   -0.6440    0.0000    1.3278 N   0  0  1  0  0  3           0  0  0
    2.8993   -1.0277   -1.7837 C   0  0  0  0  0  4           0  0  0
    2.7103    2.2089   -2.1511 C   0  0  0  0  0  4           0  0  0
    3.7559   -1.7144   -0.9009 C   0  0  0  0  0  4           0  0  0
    2.9195   -1.4459   -3.1285 C   0  0  0  0  0  4           0  0  0
    3.8476    2.2187   -2.9702 C   0  0  0  0  0  4           0  0  0
    2.5321    3.2455   -1.2249 C   0  0  0  0  0  4           0  0  0
    4.5775   -2.7623   -1.3328 C   0  0  0  0  0  4           0  0  0
    3.7393   -2.4933   -3.5650 C   0  0  0  0  0  4           0  0  0
    4.7817    3.2515   -2.8731 C   0  0  0  0  0  4           0  0  0
    3.4665    4.2786   -1.1301 C   0  0  0  0  0  4           0  0  0
    4.5666   -3.1543   -2.6657 C   0  0  0  0  0  4           0  0  0
    4.5900    4.2817   -1.9546 C   0  0  0  0  0  4           0  0  0
   -0.5074   -1.1984   -0.7983 C   0  0  0  0  0  4           0  0  0
   -0.6360   -3.5831   -0.8093 C   0  0  0  0  0  4           0  0  0
    1.7177    1.0843   -2.2393 C   0  0  0  0  0  4           0  0  0
    0.0000    0.0000    0.0000 C   0  0  2  0  0  4           0  0  0
    1.5315    0.0000   -0.0000 C   0  0  0  0  0  4           0  0  0
   -0.2301    1.1112    2.1847 C   0  0  0  0  0  4           0  0  0
   -2.1060    0.0415    1.3238 C   0  0  0  0  0  4           0  0  0
   -0.2610   -4.8364   -0.0223 C   0  0  1  0  0  4           0  0  0
   -1.2239    1.0516    3.3367 C   0  0  0  0  0  4           0  0  0
   -2.4334    0.3039    2.7860 C   0  0  0  0  0  4           0  0  0
   -0.7281   -6.1032   -0.7422 C   0  0  0  0  0  4           0  0  0
    1.2465   -4.8867    0.2158 C   0  0  0  0  0  4           0  0  0
  1 16  1  0     0  0
  1 17  1  0     0  0
  2  4  1  0     0  0
  2 18  1  0     0  0
  2 20  1  0     0  0
  3 19  1  0     0  0
  3 21  1  0     0  0
  3 22  1  0     0  0
  4  6  2  0     0  0
  4  7  1  0     0  0
  5  8  2  0     0  0
  5  9  1  0     0  0
  5 18  1  0     0  0
  6 10  1  0     0  0
  7 11  2  0     0  0
  8 12  1  0     0  0
  9 13  2  0     0  0
 10 14  2  0     0  0
 11 14  1  0     0  0
 12 15  2  0     0  0
 13 15  1  0     0  0
 16 19  1  0     0  0
 17 23  1  0     0  0
 19 20  1  0     0  0
 21 24  1  0     0  0
 22 25  1  0     0  0
 23 26  1  0     0  0
 23 27  1  0     0  0
 24 25  1  0     0  0
M  END
> <standard_type>
pIC50

> <# Confs.>
25

> <canonical_smiles>
CC(C)COCC(CN(CC1=CC=CC=C1)C2=CC=CC=C2)N3CCCC3

> <standard_relation>
=

> <Publication_ID>
nan

> <predicted_activity_value>
nan

> <actual_activity_value>
0.2596373105057561

> <Compound>
Bepridil

> <standard_units>
uM

> hash
4236522717873208673

$$$$
4
XXILIB    08252103503D 0   0.00000     0.00000

 27 29  0     1  0            999 V2000
   -1.9210   -1.1249   -0.9625 O   0  0  0  0  0  2           0  0  0
    2.0834    0.0000   -1.3540 N   0  0  1  0  0  3           0  0  0
   -0.6440    0.0000    1.3278 N   0  0  1  0  0  3           0  0  0
    2.8993   -1.0277   -1.7837 C   0  0  0  0  0  4           0  0  0
    2.1820    2.4048   -1.6930 C   0  0  0  0  0  4           0  0  0
    3.7559   -1.7144   -0.9009 C   0  0  0  0  0  4           0  0  0
    2.9195   -1.4459   -3.1285 C   0  0  0  0  0  4           0  0  0
    3.4634    2.8869   -1.9930 C   0  0  0  0  0  4           0  0  0
    1.3547    3.1565   -0.8475 C   0  0  0  0  0  4           0  0  0
    4.5775   -2.7623   -1.3328 C   0  0  0  0  0  4           0  0  0
    3.7393   -2.4933   -3.5650 C   0  0  0  0  0  4           0  0  0
    3.9038    4.1030   -1.4676 C   0  0  0  0  0  4           0  0  0
    1.7961    4.3734   -0.3241 C   0  0  0  0  0  4           0  0  0
    4.5666   -3.1543   -2.6657 C   0  0  0  0  0  4           0  0  0
    3.0696    4.8464   -0.6350 C   0  0  0  0  0  4           0  0  0
   -0.5074   -1.1984   -0.7983 C   0  0  0  0  0  4           0  0  0
   -2.4727   -2.2120   -1.7002 C   0  0  0  0  0  4           0  0  0
    1.7177    1.0843   -2.2393 C   0  0  0  0  0  4           0  0  0
   -0.0000    0.0000    0.0000 C   0  0  2  0  0  4           0  0  0
    1.5315    0.0000   -0.0000 C   0  0  0  0  0  4           0  0  0
   -0.3716   -1.2020    2.1161 C   0  0  0  0  0  4           0  0  0
   -0.2960    1.1199    2.2018 C   0  0  0  0  0  4           0  0  0
   -3.9860   -2.0557   -1.8291 C   0  0  1  0  0  4           0  0  0
   -0.8836   -0.8332    3.5018 C   0  0  0  0  0  4           0  0  0
   -0.8826    0.6912    3.5382 C   0  0  0  0  0  4           0  0  0
   -4.5974   -3.2147   -2.6190 C   0  0  0  0  0  4           0  0  0
   -4.6322   -1.9547   -0.4493 C   0  0  0  0  0  4           0  0  0
  1 16  1  0     0  0
  1 17  1  0     0  0
  2  4  1  0     0  0
  2 18  1  0     0  0
  2 20  1  0     0  0
  3 19  1  0     0  0
  3 21  1  0     0  0
  3 22  1  0     0  0
  4  6  2  0     0  0
  4  7  1  0     0  0
  5  8  2  0     0  0
  5  9  1  0     0  0
  5 18  1  0     0  0
  6 10  1  0     0  0
  7 11  2  0     0  0
  8 12  1  0     0  0
  9 13  2  0     0  0
 10 14  2  0     0  0
 11 14  1  0     0  0
 12 15  2  0     0  0
 13 15  1  0     0  0
 16 19  1  0     0  0
 17 23  1  0     0  0
 19 20  1  0     0  0
 21 24  1  0     0  0
 22 25  1  0     0  0
 23 26  1  0     0  0
 23 27  1  0     0  0
 24 25  1  0     0  0
M  END
> <standard_type>
pIC50

> <# Confs.>
25

> <canonical_smiles>
CC(C)COCC(CN(CC1=CC=CC=C1)C2=CC=CC=C2)N3CCCC3

> <standard_relation>
=

> <Publication_ID>
nan

> <predicted_activity_value>
nan

> <actual_activity_value>
0.2596373105057561

> <Compound>
Bepridil

> <standard_units>
uM

> hash
4236522717873208673

$$$$
4
XXILIB    08252103503D 0   0.00000     0.00000

 27 29  0     1  0            999 V2000
   -0.1937   -2.4143   -0.1247 O   0  0  0  0  0  2           0  0  0
    2.0834    0.0000   -1.3540 N   0  0  1  0  0  3           0  0  0
   -0.6440    0.0000    1.3278 N   0  0  1  0  0  3           0  0  0
    2.8993   -1.0277   -1.7837 C   0  0  0  0  0  4           0  0  0
    2.1820    2.4048   -1.6930 C   0  0  0  0  0  4           0  0  0
    3.7559   -1.7144   -0.9009 C   0  0  0  0  0  4           0  0  0
    2.9195   -1.4459   -3.1285 C   0  0  0  0  0  4           0  0  0
    3.4634    2.8869   -1.9930 C   0  0  0  0  0  4           0  0  0
    1.3547    3.1565   -0.8475 C   0  0  0  0  0  4           0  0  0
    4.5775   -2.7623   -1.3328 C   0  0  0  0  0  4           0  0  0
    3.7393   -2.4933   -3.5650 C   0  0  0  0  0  4           0  0  0
    3.9038    4.1030   -1.4676 C   0  0  0  0  0  4           0  0  0
    1.7961    4.3734   -0.3241 C   0  0  0  0  0  4           0  0  0
    4.5666   -3.1543   -2.6657 C   0  0  0  0  0  4           0  0  0
    3.0696    4.8464   -0.6350 C   0  0  0  0  0  4           0  0  0
   -0.5074   -1.1984   -0.7983 C   0  0  0  0  0  4           0  0  0
   -0.6360   -3.5831   -0.8093 C   0  0  0  0  0  4           0  0  0
    1.7177    1.0843   -2.2393 C   0  0  0  0  0  4           0  0  0
    0.0000    0.0000    0.0000 C   0  0  2  0  0  4           0  0  0
    1.5315    0.0000   -0.0000 C   0  0  0  0  0  4           0  0  0
   -0.2301    1.1112    2.1847 C   0  0  0  0  0  4           0  0  0
   -2.1060    0.0415    1.3238 C   0  0  0  0  0  4           0  0  0
   -0.2610   -4.8364   -0.0223 C   0  0  1  0  0  4           0  0  0
   -1.2239    1.0516    3.3367 C   0  0  0  0  0  4           0  0  0
   -2.4334    0.3039    2.7860 C   0  0  0  0  0  4           0  0  0
   -0.7281   -6.1032   -0.7422 C   0  0  0  0  0  4           0  0  0
    1.2465   -4.8867    0.2158 C   0  0  0  0  0  4           0  0  0
  1 16  1  0     0  0
  1 17  1  0     0  0
  2  4  1  0     0  0
  2 18  1  0     0  0
  2 20  1  0     0  0
  3 19  1  0     0  0
  3 21  1  0     0  0
  3 22  1  0     0  0
  4  6  2  0     0  0
  4  7  1  0     0  0
  5  8  2  0     0  0
  5  9  1  0     0  0
  5 18  1  0     0  0
  6 10  1  0     0  0
  7 11  2  0     0  0
  8 12  1  0     0  0
  9 13  2  0     0  0
 10 14  2  0     0  0
 11 14  1  0     0  0
 12 15  2  0     0  0
 13 15  1  0     0  0
 16 19  1  0     0  0
 17 23  1  0     0  0
 19 20  1  0     0  0
 21 24  1  0     0  0
 22 25  1  0     0  0
 23 26  1  0     0  0
 23 27  1  0     0  0
 24 25  1  0     0  0
M  END
> <standard_type>
pIC50

> <# Confs.>
25

> <canonical_smiles>
CC(C)COCC(CN(CC1=CC=CC=C1)C2=CC=CC=C2)N3CCCC3

> <standard_relation>
=

> <Publication_ID>
nan

> <predicted_activity_value>
nan

> <actual_activity_value>
0.2596373105057561

> <Compound>
Bepridil

> <standard_units>
uM

> hash
4236522717873208673

$$$$
4
XXILIB    08252103503D 0   0.00000     0.00000

 27 29  0     1  0            999 V2000
   -1.9210   -1.1249   -0.9625 O   0  0  0  0  0  2           0  0  0
    2.0834    0.0000   -1.3540 N   0  0  1  0  0  3           0  0  0
   -0.6440    0.0000    1.3278 N   0  0  1  0  0  3           0  0  0
    2.8993   -1.0277   -1.7837 C   0  0  0  0  0  4           0  0  0
    2.7103    2.2089   -2.1511 C   0  0  0  0  0  4           0  0  0
    3.7559   -1.7144   -0.9009 C   0  0  0  0  0  4           0  0  0
    2.9195   -1.4459   -3.1285 C   0  0  0  0  0  4           0  0  0
    3.8476    2.2187   -2.9702 C   0  0  0  0  0  4           0  0  0
    2.5321    3.2455   -1.2249 C   0  0  0  0  0  4           0  0  0
    4.5775   -2.7623   -1.3328 C   0  0  0  0  0  4           0  0  0
    3.7393   -2.4933   -3.5650 C   0  0  0  0  0  4           0  0  0
    4.7817    3.2515   -2.8731 C   0  0  0  0  0  4           0  0  0
    3.4665    4.2786   -1.1301 C   0  0  0  0  0  4           0  0  0
    4.5666   -3.1543   -2.6657 C   0  0  0  0  0  4           0  0  0
    4.5900    4.2817   -1.9546 C   0  0  0  0  0  4           0  0  0
   -0.5074   -1.1984   -0.7983 C   0  0  0  0  0  4           0  0  0
   -2.4727   -2.2120   -1.7002 C   0  0  0  0  0  4           0  0  0
    1.7177    1.0843   -2.2393 C   0  0  0  0  0  4           0  0  0
   -0.0000    0.0000    0.0000 C   0  0  2  0  0  4           0  0  0
    1.5315    0.0000   -0.0000 C   0  0  0  0  0  4           0  0  0
   -0.3716   -1.2020    2.1161 C   0  0  0  0  0  4           0  0  0
   -0.2960    1.1199    2.2018 C   0  0  0  0  0  4           0  0  0
   -3.9860   -2.0557   -1.8291 C   0  0  1  0  0  4           0  0  0
   -0.8836   -0.8332    3.5018 C   0  0  0  0  0  4           0  0  0
   -0.8826    0.6912    3.5382 C   0  0  0  0  0  4           0  0  0
   -4.5974   -3.2147   -2.6190 C   0  0  0  0  0  4           0  0  0
   -4.6322   -1.9547   -0.4493 C   0  0  0  0  0  4           0  0  0
  1 16  1  0     0  0
  1 17  1  0     0  0
  2  4  1  0     0  0
  2 18  1  0     0  0
  2 20  1  0     0  0
  3 19  1  0     0  0
  3 21  1  0     0  0
  3 22  1  0     0  0
  4  6  2  0     0  0
  4  7  1  0     0  0
  5  8  2  0     0  0
  5  9  1  0     0  0
  5 18  1  0     0  0
  6 10  1  0     0  0
  7 11  2  0     0  0
  8 12  1  0     0  0
  9 13  2  0     0  0
 10 14  2  0     0  0
 11 14  1  0     0  0
 12 15  2  0     0  0
 13 15  1  0     0  0
 16 19  1  0     0  0
 17 23  1  0     0  0
 19 20  1  0     0  0
 21 24  1  0     0  0
 22 25  1  0     0  0
 23 26  1  0     0  0
 23 27  1  0     0  0
 24 25  1  0     0  0
M  END
> <standard_type>
pIC50

> <# Confs.>
25

> <canonical_smiles>
CC(C)COCC(CN(CC1=CC=CC=C1)C2=CC=CC=C2)N3CCCC3

> <standard_relation>
=

> <Publication_ID>
nan

> <predicted_activity_value>
nan

> <actual_activity_value>
0.2596373105057561

> <Compound>
Bepridil

> <standard_units>
uM

> hash
4236522717873208673

$$$$
4
XXILIB    08252103503D 0   0.00000     0.00000

 27 29  0     1  0            999 V2000
   -0.1937   -2.4143   -0.1247 O   0  0  0  0  0  2           0  0  0
    2.0834   -0.0000   -1.3540 N   0  0  1  0  0  3           0  0  0
   -0.6440    0.0000    1.3278 N   0  0  1  0  0  3           0  0  0
    2.3498    1.1867   -2.0077 C   0  0  0  0  0  4           0  0  0
    3.7715   -1.7262   -1.6334 C   0  0  0  0  0  4           0  0  0
    1.7567    1.5016   -3.2462 C   0  0  0  0  0  4           0  0  0
    3.2292    2.1475   -1.4718 C   0  0  0  0  0  4           0  0  0
    4.0145   -2.4795   -0.4767 C   0  0  0  0  0  4           0  0  0
    4.8526   -1.3706   -2.4513 C   0  0  0  0  0  4           0  0  0
    2.0188    2.7079   -3.9064 C   0  0  0  0  0  4           0  0  0
    3.4943    3.3551   -2.1283 C   0  0  0  0  0  4           0  0  0
    5.3117   -2.8797   -0.1513 C   0  0  0  0  0  4           0  0  0
    6.1493   -1.7729   -2.1253 C   0  0  0  0  0  4           0  0  0
    2.8860    3.6371   -3.3451 C   0  0  0  0  0  4           0  0  0
    6.3781   -2.5278   -0.9764 C   0  0  0  0  0  4           0  0  0
   -0.5074   -1.1984   -0.7983 C   0  0  0  0  0  4           0  0  0
   -0.6360   -3.5831   -0.8093 C   0  0  0  0  0  4           0  0  0
    2.3782   -1.2754   -1.9701 C   0  0  0  0  0  4           0  0  0
    0.0000    0.0000    0.0000 C   0  0  2  0  0  4           0  0  0
    1.5315   -0.0000    0.0000 C   0  0  0  0  0  4           0  0  0
   -0.2301    1.1112    2.1847 C   0  0  0  0  0  4           0  0  0
   -2.1060    0.0415    1.3238 C   0  0  0  0  0  4           0  0  0
   -0.2610   -4.8364   -0.0223 C   0  0  1  0  0  4           0  0  0
   -1.2239    1.0516    3.3367 C   0  0  0  0  0  4           0  0  0
   -2.4334    0.3039    2.7860 C   0  0  0  0  0  4           0  0  0
   -0.7281   -6.1032   -0.7422 C   0  0  0  0  0  4           0  0  0
    1.2465   -4.8867    0.2158 C   0  0  0  0  0  4           0  0  0
  1 16  1  0     0  0
  1 17  1  0     0  0
  2  4  1  0     0  0
  2 18  1  0     0  0
  2 20  1  0     0  0
  3 19  1  0     0  0
  3 21  1  0     0  0
  3 22  1  0     0  0
  4  6  2  0     0  0
  4  7  1  0     0  0
  5  8  2  0     0  0
  5  9  1  0     0  0
  5 18  1  0     0  0
  6 10  1  0     0  0
  7 11  2  0     0  0
  8 12  1  0     0  0
  9 13  2  0     0  0
 10 14  2  0     0  0
 11 14  1  0     0  0
 12 15  2  0     0  0
 13 15  1  0     0  0
 16 19  1  0     0  0
 17 23  1  0     0  0
 19 20  1  0     0  0
 21 24  1  0     0  0
 22 25  1  0     0  0
 23 26  1  0     0  0
 23 27  1  0     0  0
 24 25  1  0     0  0
M  END
> <standard_type>
pIC50

> <# Confs.>
25

> <canonical_smiles>
CC(C)COCC(CN(CC1=CC=CC=C1)C2=CC=CC=C2)N3CCCC3

> <standard_relation>
=

> <Publication_ID>
nan

> <predicted_activity_value>
nan

> <actual_activity_value>
0.2596373105057561

> <Compound>
Bepridil

> <standard_units>
uM

> hash
4236522717873208673

$$$$
4
XXILIB    08252103503D 0   0.00000     0.00000

 27 29  0     1  0            999 V2000
    0.0961   -1.2285   -2.0889 O   0  0  0  0  0  2           0  0  0
    2.0834    1.1726    0.6770 N   0  0  1  0  0  3           0  0  0
   -0.6440    0.0000    1.3278 N   0  0  1  0  0  3           0  0  0
    1.8004    2.4465    0.2258 C   0  0  0  0  0  4           0  0  0
    4.3523    0.8522    1.4877 C   0  0  0  0  0  4           0  0  0
    1.5847    2.7199   -1.1393 C   0  0  0  0  0  4           0  0  0
    1.7115    3.5425    1.1060 C   0  0  0  0  0  4           0  0  0
    5.1529    2.0001    1.4120 C   0  0  0  0  0  4           0  0  0
    4.9199   -0.3925    1.1829 C   0  0  0  0  0  4           0  0  0
    1.2891    4.0092   -1.5978 C   0  0  0  0  0  4           0  0  0
    1.4162    4.8334    0.6522 C   0  0  0  0  0  4           0  0  0
    6.4978    1.9033    1.0507 C   0  0  0  0  0  4           0  0  0
    6.2656   -0.4879    0.8233 C   0  0  0  0  0  4           0  0  0
    1.2015    5.0664   -0.7005 C   0  0  0  0  0  4           0  0  0
    7.0540    0.6595    0.7583 C   0  0  0  0  0  4           0  0  0
   -0.5074   -1.1984   -0.7983 C   0  0  0  0  0  4           0  0  0
   -0.3279   -2.3222   -2.8979 C   0  0  0  0  0  4           0  0  0
    2.8988    0.9600    1.8531 C   0  0  0  0  0  4           0  0  0
    0.0000    0.0000    0.0000 C   0  0  2  0  0  4           0  0  0
    1.5315    0.0000   -0.0000 C   0  0  0  0  0  4           0  0  0
   -2.1034    0.0908    1.2761 C   0  0  0  0  0  4           0  0  0
   -0.3608   -1.1614    2.1704 C   0  0  0  0  0  4           0  0  0
    0.3640   -2.2792   -4.2582 C   0  0  1  0  0  4           0  0  0
   -2.5224   -0.2184    2.7069 C   0  0  0  0  0  4           0  0  0
   -1.3563   -0.9951    3.3085 C   0  0  0  0  0  4           0  0  0
   -0.0789   -3.4469   -5.1423 C   0  0  0  0  0  4           0  0  0
    0.0870   -0.9499   -4.9568 C   0  0  0  0  0  4           0  0  0
  1 16  1  0     0  0
  1 17  1  0     0  0
  2  4  1  0     0  0
  2 18  1  0     0  0
  2 20  1  0     0  0
  3 19  1  0     0  0
  3 21  1  0     0  0
  3 22  1  0     0  0
  4  6  2  0     0  0
  4  7  1  0     0  0
  5  8  2  0     0  0
  5  9  1  0     0  0
  5 18  1  0     0  0
  6 10  1  0     0  0
  7 11  2  0     0  0
  8 12  1  0     0  0
  9 13  2  0     0  0
 10 14  2  0     0  0
 11 14  1  0     0  0
 12 15  2  0     0  0
 13 15  1  0     0  0
 16 19  1  0     0  0
 17 23  1  0     0  0
 19 20  1  0     0  0
 21 24  1  0     0  0
 22 25  1  0     0  0
 23 26  1  0     0  0
 23 27  1  0     0  0
 24 25  1  0     0  0
M  END
> <standard_type>
pIC50

> <# Confs.>
25

> <canonical_smiles>
CC(C)COCC(CN(CC1=CC=CC=C1)C2=CC=CC=C2)N3CCCC3

> <standard_relation>
=

> <Publication_ID>
nan

> <predicted_activity_value>
nan

> <actual_activity_value>
0.2596373105057561

> <Compound>
Bepridil

> <standard_units>
uM

> hash
4236522717873208673

$$$$
4
XXILIB    08252103503D 0   0.00000     0.00000

 27 29  0     1  0            999 V2000
   -1.9210   -1.1249   -0.9625 O   0  0  0  0  0  2           0  0  0
    2.0834   -0.0000   -1.3540 N   0  0  1  0  0  3           0  0  0
   -0.6440    0.0000    1.3278 N   0  0  1  0  0  3           0  0  0
    1.8004    1.0277   -2.2317 C   0  0  0  0  0  4           0  0  0
    4.3324   -0.5702   -2.0783 C   0  0  0  0  0  4           0  0  0
    1.5084    2.3301   -1.7807 C   0  0  0  0  0  4           0  0  0
    1.7885    0.8302   -3.6261 C   0  0  0  0  0  4           0  0  0
    5.1403   -1.2608   -2.9919 C   0  0  0  0  0  4           0  0  0
    4.8347    0.5869   -1.4675 C   0  0  0  0  0  4           0  0  0
    1.2296    3.3754   -2.6691 C   0  0  0  0  0  4           0  0  0
    1.5104    1.8723   -4.5184 C   0  0  0  0  0  4           0  0  0
    6.4207   -0.7962   -3.2978 C   0  0  0  0  0  4           0  0  0
    6.1150    1.0512   -1.7756 C   0  0  0  0  0  4           0  0  0
    1.2340    3.1469   -4.0396 C   0  0  0  0  0  4           0  0  0
    6.9067    0.3603   -2.6910 C   0  0  0  0  0  4           0  0  0
   -0.5074   -1.1984   -0.7983 C   0  0  0  0  0  4           0  0  0
   -2.4727   -2.2120   -1.7002 C   0  0  0  0  0  4           0  0  0
    2.9638   -1.0843   -1.7314 C   0  0  0  0  0  4           0  0  0
   -0.0000    0.0000    0.0000 C   0  0  2  0  0  4           0  0  0
    1.5315   -0.0000   -0.0000 C   0  0  0  0  0  4           0  0  0
   -0.3716   -1.2020    2.1161 C   0  0  0  0  0  4           0  0  0
   -0.2960    1.1199    2.2018 C   0  0  0  0  0  4           0  0  0
   -3.9860   -2.0557   -1.8291 C   0  0  1  0  0  4           0  0  0
   -0.8836   -0.8332    3.5018 C   0  0  0  0  0  4           0  0  0
   -0.8826    0.6912    3.5382 C   0  0  0  0  0  4           0  0  0
   -4.5974   -3.2147   -2.6190 C   0  0  0  0  0  4           0  0  0
   -4.6322   -1.9547   -0.4493 C   0  0  0  0  0  4           0  0  0
  1 16  1  0     0  0
  1 17  1  0     0  0
  2  4  1  0     0  0
  2 18  1  0     0  0
  2 20  1  0     0  0
  3 19  1  0     0  0
  3 21  1  0     0  0
  3 22  1  0     0  0
  4  6  2  0     0  0
  4  7  1  0     0  0
  5  8  2  0     0  0
  5  9  1  0     0  0
  5 18  1  0     0  0
  6 10  1  0     0  0
  7 11  2  0     0  0
  8 12  1  0     0  0
  9 13  2  0     0  0
 10 14  2  0     0  0
 11 14  1  0     0  0
 12 15  2  0     0  0
 13 15  1  0     0  0
 16 19  1  0     0  0
 17 23  1  0     0  0
 19 20  1  0     0  0
 21 24  1  0     0  0
 22 25  1  0     0  0
 23 26  1  0     0  0
 23 27  1  0     0  0
 24 25  1  0     0  0
M  END
> <standard_type>
pIC50

> <# Confs.>
25

> <canonical_smiles>
CC(C)COCC(CN(CC1=CC=CC=C1)C2=CC=CC=C2)N3CCCC3

> <standard_relation>
=

> <Publication_ID>
nan

> <predicted_activity_value>
nan

> <actual_activity_value>
0.2596373105057561

> <Compound>
Bepridil

> <standard_units>
uM

> hash
4236522717873208673

$$$$
4
XXILIB    08252103503D 0   0.00000     0.00000

 27 29  0     1  0            999 V2000
   -1.9210   -1.1249   -0.9625 O   0  0  0  0  0  2           0  0  0
    2.0834   -0.0000   -1.3540 N   0  0  1  0  0  3           0  0  0
   -0.6440    0.0000    1.3278 N   0  0  1  0  0  3           0  0  0
    1.8004    1.0277   -2.2317 C   0  0  0  0  0  4           0  0  0
    4.3899   -0.7661   -1.3813 C   0  0  0  0  0  4           0  0  0
    1.5084    2.3301   -1.7807 C   0  0  0  0  0  4           0  0  0
    1.7885    0.8302   -3.6261 C   0  0  0  0  0  4           0  0  0
    4.8996   -1.0876   -0.1159 C   0  0  0  0  0  4           0  0  0
    5.2204   -0.1119   -2.3014 C   0  0  0  0  0  4           0  0  0
    1.2296    3.3754   -2.6691 C   0  0  0  0  0  4           0  0  0
    1.5104    1.8723   -4.5184 C   0  0  0  0  0  4           0  0  0
    6.2178   -0.7722    0.2180 C   0  0  0  0  0  4           0  0  0
    6.5392    0.2016   -1.9664 C   0  0  0  0  0  4           0  0  0
    1.2340    3.1469   -4.0396 C   0  0  0  0  0  4           0  0  0
    7.0374   -0.1294   -0.7077 C   0  0  0  0  0  4           0  0  0
   -0.5074   -1.1984   -0.7983 C   0  0  0  0  0  4           0  0  0
   -2.4727   -2.2120   -1.7002 C   0  0  0  0  0  4           0  0  0
    2.9638   -1.0843   -1.7314 C   0  0  0  0  0  4           0  0  0
   -0.0000    0.0000    0.0000 C   0  0  2  0  0  4           0  0  0
    1.5315   -0.0000   -0.0000 C   0  0  0  0  0  4           0  0  0
   -0.2301    1.1112    2.1847 C   0  0  0  0  0  4           0  0  0
   -2.1060    0.0415    1.3238 C   0  0  0  0  0  4           0  0  0
   -3.9860   -2.0557   -1.8291 C   0  0  1  0  0  4           0  0  0
   -1.2239    1.0516    3.3367 C   0  0  0  0  0  4           0  0  0
   -2.4334    0.3039    2.7860 C   0  0  0  0  0  4           0  0  0
   -4.5974   -3.2147   -2.6190 C   0  0  0  0  0  4           0  0  0
   -4.6322   -1.9547   -0.4493 C   0  0  0  0  0  4           0  0  0
  1 16  1  0     0  0
  1 17  1  0     0  0
  2  4  1  0     0  0
  2 18  1  0     0  0
  2 20  1  0     0  0
  3 19  1  0     0  0
  3 21  1  0     0  0
  3 22  1  0     0  0
  4  6  2  0     0  0
  4  7  1  0     0  0
  5  8  2  0     0  0
  5  9  1  0     0  0
  5 18  1  0     0  0
  6 10  1  0     0  0
  7 11  2  0     0  0
  8 12  1  0     0  0
  9 13  2  0     0  0
 10 14  2  0     0  0
 11 14  1  0     0  0
 12 15  2  0     0  0
 13 15  1  0     0  0
 16 19  1  0     0  0
 17 23  1  0     0  0
 19 20  1  0     0  0
 21 24  1  0     0  0
 22 25  1  0     0  0
 23 26  1  0     0  0
 23 27  1  0     0  0
 24 25  1  0     0  0
M  END
> <standard_type>
pIC50

> <# Confs.>
25

> <canonical_smiles>
CC(C)COCC(CN(CC1=CC=CC=C1)C2=CC=CC=C2)N3CCCC3

> <standard_relation>
=

> <Publication_ID>
nan

> <predicted_activity_value>
nan

> <actual_activity_value>
0.2596373105057561

> <Compound>
Bepridil

> <standard_units>
uM

> hash
4236522717873208673

$$$$
4
XXILIB    08252103503D 0   0.00000     0.00000

 27 29  0     1  0            999 V2000
    0.0961   -1.2285   -2.0889 O   0  0  0  0  0  2           0  0  0
    2.0834   -1.1726    0.6770 N   0  0  1  0  0  3           0  0  0
   -0.6440    0.0000    1.3278 N   0  0  1  0  0  3           0  0  0
    2.3498   -1.1454    2.0315 C   0  0  0  0  0  4           0  0  0
    3.6984   -2.4007   -0.6614 C   0  0  0  0  0  4           0  0  0
    1.6984   -2.0092    2.9340 C   0  0  0  0  0  4           0  0  0
    3.2879   -0.2525    2.5852 C   0  0  0  0  0  4           0  0  0
    4.7479   -2.9592    0.0809 C   0  0  0  0  0  4           0  0  0
    3.9772   -1.8399   -1.9152 C   0  0  0  0  0  4           0  0  0
    1.9734   -1.9891    4.3064 C   0  0  0  0  0  4           0  0  0
    3.5662   -0.2288    3.9569 C   0  0  0  0  0  4           0  0  0
    6.0484   -2.9677   -0.4265 C   0  0  0  0  0  4           0  0  0
    5.2782   -1.8505   -2.4219 C   0  0  0  0  0  4           0  0  0
    2.9108   -1.1002    4.8179 C   0  0  0  0  0  4           0  0  0
    6.3127   -2.4150   -1.6781 C   0  0  0  0  0  4           0  0  0
   -0.5074   -1.1984   -0.7983 C   0  0  0  0  0  4           0  0  0
   -0.3279   -2.3222   -2.8979 C   0  0  0  0  0  4           0  0  0
    2.3032   -2.3703   -0.1042 C   0  0  0  0  0  4           0  0  0
    0.0000    0.0000    0.0000 C   0  0  2  0  0  4           0  0  0
    1.5315    0.0000    0.0000 C   0  0  0  0  0  4           0  0  0
   -0.2301    1.1112    2.1847 C   0  0  0  0  0  4           0  0  0
   -2.1060    0.0415    1.3238 C   0  0  0  0  0  4           0  0  0
    0.3640   -2.2792   -4.2582 C   0  0  1  0  0  4           0  0  0
   -1.2239    1.0516    3.3367 C   0  0  0  0  0  4           0  0  0
   -2.4334    0.3039    2.7860 C   0  0  0  0  0  4           0  0  0
   -0.0789   -3.4469   -5.1423 C   0  0  0  0  0  4           0  0  0
    0.0870   -0.9499   -4.9568 C   0  0  0  0  0  4           0  0  0
  1 16  1  0     0  0
  1 17  1  0     0  0
  2  4  1  0     0  0
  2 18  1  0     0  0
  2 20  1  0     0  0
  3 19  1  0     0  0
  3 21  1  0     0  0
  3 22  1  0     0  0
  4  6  2  0     0  0
  4  7  1  0     0  0
  5  8  2  0     0  0
  5  9  1  0     0  0
  5 18  1  0     0  0
  6 10  1  0     0  0
  7 11  2  0     0  0
  8 12  1  0     0  0
  9 13  2  0     0  0
 10 14  2  0     0  0
 11 14  1  0     0  0
 12 15  2  0     0  0
 13 15  1  0     0  0
 16 19  1  0     0  0
 17 23  1  0     0  0
 19 20  1  0     0  0
 21 24  1  0     0  0
 22 25  1  0     0  0
 23 26  1  0     0  0
 23 27  1  0     0  0
 24 25  1  0     0  0
M  END
> <standard_type>
pIC50

> <# Confs.>
25

> <canonical_smiles>
CC(C)COCC(CN(CC1=CC=CC=C1)C2=CC=CC=C2)N3CCCC3

> <standard_relation>
=

> <Publication_ID>
nan

> <predicted_activity_value>
nan

> <actual_activity_value>
0.2596373105057561

> <Compound>
Bepridil

> <standard_units>
uM

> hash
4236522717873208673

$$$$
4
XXILIB    08252103503D 0   0.00000     0.00000

 27 29  0     1  0            999 V2000
    0.0961   -1.2285   -2.0889 O   0  0  0  0  0  2           0  0  0
    2.0834    1.1726    0.6770 N   0  0  1  0  0  3           0  0  0
   -0.6440    0.0000    1.3278 N   0  0  1  0  0  3           0  0  0
    2.8993    1.0309    1.7819 C   0  0  0  0  0  4           0  0  0
    2.7914    2.8725   -0.9095 C   0  0  0  0  0  4           0  0  0
    2.5781    1.6169    3.0222 C   0  0  0  0  0  4           0  0  0
    4.0974    0.2924    1.7294 C   0  0  0  0  0  4           0  0  0
    2.6035    2.5144   -2.2515 C   0  0  0  0  0  4           0  0  0
    3.9512    3.5721   -0.5497 C   0  0  0  0  0  4           0  0  0
    3.3995    1.4673    4.1458 C   0  0  0  0  0  4           0  0  0
    4.9219    0.1399    2.8503 C   0  0  0  0  0  4           0  0  0
    3.5511    2.8603   -3.2164 C   0  0  0  0  0  4           0  0  0
    4.8974    3.9187   -1.5162 C   0  0  0  0  0  4           0  0  0
    4.5710    0.7251    4.0605 C   0  0  0  0  0  4           0  0  0
    4.6966    3.5636   -2.8488 C   0  0  0  0  0  4           0  0  0
   -0.5074   -1.1984   -0.7983 C   0  0  0  0  0  4           0  0  0
   -0.3279   -2.3222   -2.8979 C   0  0  0  0  0  4           0  0  0
    1.7827    2.4788    0.1323 C   0  0  0  0  0  4           0  0  0
    0.0000    0.0000    0.0000 C   0  0  2  0  0  4           0  0  0
    1.5315    0.0000    0.0000 C   0  0  0  0  0  4           0  0  0
   -2.1034    0.0908    1.2761 C   0  0  0  0  0  4           0  0  0
   -0.3608   -1.1614    2.1704 C   0  0  0  0  0  4           0  0  0
    0.3640   -2.2792   -4.2582 C   0  0  1  0  0  4           0  0  0
   -2.5224   -0.2184    2.7069 C   0  0  0  0  0  4           0  0  0
   -1.3563   -0.9951    3.3085 C   0  0  0  0  0  4           0  0  0
   -0.0789   -3.4469   -5.1423 C   0  0  0  0  0  4           0  0  0
    0.0870   -0.9499   -4.9568 C   0  0  0  0  0  4           0  0  0
  1 16  1  0     0  0
  1 17  1  0     0  0
  2  4  1  0     0  0
  2 18  1  0     0  0
  2 20  1  0     0  0
  3 19  1  0     0  0
  3 21  1  0     0  0
  3 22  1  0     0  0
  4  6  2  0     0  0
  4  7  1  0     0  0
  5  8  2  0     0  0
  5  9  1  0     0  0
  5 18  1  0     0  0
  6 10  1  0     0  0
  7 11  2  0     0  0
  8 12  1  0     0  0
  9 13  2  0     0  0
 10 14  2  0     0  0
 11 14  1  0     0  0
 12 15  2  0     0  0
 13 15  1  0     0  0
 16 19  1  0     0  0
 17 23  1  0     0  0
 19 20  1  0     0  0
 21 24  1  0     0  0
 22 25  1  0     0  0
 23 26  1  0     0  0
 23 27  1  0     0  0
 24 25  1  0     0  0
M  END
> <standard_type>
pIC50

> <# Confs.>
25

> <canonical_smiles>
CC(C)COCC(CN(CC1=CC=CC=C1)C2=CC=CC=C2)N3CCCC3

> <standard_relation>
=

> <Publication_ID>
nan

> <predicted_activity_value>
nan

> <actual_activity_value>
0.2596373105057561

> <Compound>
Bepridil

> <standard_units>
uM

> hash
4236522717873208673

$$$$
4
XXILIB    08252103503D 0   0.00000     0.00000

 27 29  0     1  0            999 V2000
    0.0961   -1.2285   -2.0889 O   0  0  0  0  0  2           0  0  0
    2.0834    1.1726    0.6770 N   0  0  1  0  0  3           0  0  0
   -0.6440    0.0000    1.3278 N   0  0  1  0  0  3           0  0  0
    2.3498    1.1454    2.0315 C   0  0  0  0  0  4           0  0  0
    3.7715    2.2777   -0.6783 C   0  0  0  0  0  4           0  0  0
    1.7567    2.0604    2.9235 C   0  0  0  0  0  4           0  0  0
    3.2292    0.2008    2.5957 C   0  0  0  0  0  4           0  0  0
    4.0145    1.6526   -1.9090 C   0  0  0  0  0  4           0  0  0
    4.8526    2.8082    0.0387 C   0  0  0  0  0  4           0  0  0
    2.0188    2.0291    4.2983 C   0  0  0  0  0  4           0  0  0
    3.4943    0.1656    3.9698 C   0  0  0  0  0  4           0  0  0
    5.3117    1.5709   -2.4182 C   0  0  0  0  0  4           0  0  0
    6.1493    2.7270   -0.4727 C   0  0  0  0  0  4           0  0  0
    2.8860    1.0783    4.8223 C   0  0  0  0  0  4           0  0  0
    6.3781    2.1095   -1.7009 C   0  0  0  0  0  4           0  0  0
   -0.5074   -1.1984   -0.7983 C   0  0  0  0  0  4           0  0  0
   -0.3279   -2.3222   -2.8979 C   0  0  0  0  0  4           0  0  0
    2.3782    2.3439   -0.1195 C   0  0  0  0  0  4           0  0  0
    0.0000    0.0000    0.0000 C   0  0  2  0  0  4           0  0  0
    1.5315   -0.0000   -0.0000 C   0  0  0  0  0  4           0  0  0
   -2.1034    0.0908    1.2761 C   0  0  0  0  0  4           0  0  0
   -0.3608   -1.1614    2.1704 C   0  0  0  0  0  4           0  0  0
    0.3640   -2.2792   -4.2582 C   0  0  1  0  0  4           0  0  0
   -2.5224   -0.2184    2.7069 C   0  0  0  0  0  4           0  0  0
   -1.3563   -0.9951    3.3085 C   0  0  0  0  0  4           0  0  0
   -0.0789   -3.4469   -5.1423 C   0  0  0  0  0  4           0  0  0
    0.0870   -0.9499   -4.9568 C   0  0  0  0  0  4           0  0  0
  1 16  1  0     0  0
  1 17  1  0     0  0
  2  4  1  0     0  0
  2 18  1  0     0  0
  2 20  1  0     0  0
  3 19  1  0     0  0
  3 21  1  0     0  0
  3 22  1  0     0  0
  4  6  2  0     0  0
  4  7  1  0     0  0
  5  8  2  0     0  0
  5  9  1  0     0  0
  5 18  1  0     0  0
  6 10  1  0     0  0
  7 11  2  0     0  0
  8 12  1  0     0  0
  9 13  2  0     0  0
 10 14  2  0     0  0
 11 14  1  0     0  0
 12 15  2  0     0  0
 13 15  1  0     0  0
 16 19  1  0     0  0
 17 23  1  0     0  0
 19 20  1  0     0  0
 21 24  1  0     0  0
 22 25  1  0     0  0
 23 26  1  0     0  0
 23 27  1  0     0  0
 24 25  1  0     0  0
M  END
> <standard_type>
pIC50

> <# Confs.>
25

> <canonical_smiles>
CC(C)COCC(CN(CC1=CC=CC=C1)C2=CC=CC=C2)N3CCCC3

> <standard_relation>
=

> <Publication_ID>
nan

> <predicted_activity_value>
nan

> <actual_activity_value>
0.2596373105057561

> <Compound>
Bepridil

> <standard_units>
uM

> hash
4236522717873208673

$$$$
4
XXILIB    08252103503D 0   0.00000     0.00000

 27 29  0     1  0            999 V2000
   -1.9210   -1.1249   -0.9625 O   0  0  0  0  0  2           0  0  0
    2.0834    0.0000   -1.3540 N   0  0  1  0  0  3           0  0  0
   -0.6440    0.0000    1.3278 N   0  0  1  0  0  3           0  0  0
    2.3498   -1.1867   -2.0077 C   0  0  0  0  0  4           0  0  0
    3.6984    1.7731   -1.7484 C   0  0  0  0  0  4           0  0  0
    2.7487   -2.3447   -1.3114 C   0  0  0  0  0  4           0  0  0
    2.2370   -1.3045   -3.4067 C   0  0  0  0  0  4           0  0  0
    4.7479    1.4096   -2.6032 C   0  0  0  0  0  4           0  0  0
    3.9772    2.5785   -0.6358 C   0  0  0  0  0  4           0  0  0
    3.0110   -3.5510   -1.9713 C   0  0  0  0  0  4           0  0  0
    2.4982   -2.5087   -4.0709 C   0  0  0  0  0  4           0  0  0
    6.0484    1.8532   -2.3569 C   0  0  0  0  0  4           0  0  0
    5.2782    3.0227   -0.3916 C   0  0  0  0  0  4           0  0  0
    2.8822   -3.6339   -3.3523 C   0  0  0  0  0  4           0  0  0
    6.3127    2.6608   -1.2525 C   0  0  0  0  0  4           0  0  0
   -0.5074   -1.1984   -0.7983 C   0  0  0  0  0  4           0  0  0
   -2.4727   -2.2120   -1.7002 C   0  0  0  0  0  4           0  0  0
    2.3032    1.2754   -2.0007 C   0  0  0  0  0  4           0  0  0
   -0.0000    0.0000    0.0000 C   0  0  2  0  0  4           0  0  0
    1.5315    0.0000    0.0000 C   0  0  0  0  0  4           0  0  0
   -0.3716   -1.2020    2.1161 C   0  0  0  0  0  4           0  0  0
   -0.2960    1.1199    2.2018 C   0  0  0  0  0  4           0  0  0
   -3.9860   -2.0557   -1.8291 C   0  0  1  0  0  4           0  0  0
   -0.8836   -0.8332    3.5018 C   0  0  0  0  0  4           0  0  0
   -0.8826    0.6912    3.5382 C   0  0  0  0  0  4           0  0  0
   -4.5974   -3.2147   -2.6190 C   0  0  0  0  0  4           0  0  0
   -4.6322   -1.9547   -0.4493 C   0  0  0  0  0  4           0  0  0
  1 16  1  0     0  0
  1 17  1  0     0  0
  2  4  1  0     0  0
  2 18  1  0     0  0
  2 20  1  0     0  0
  3 19  1  0     0  0
  3 21  1  0     0  0
  3 22  1  0     0  0
  4  6  2  0     0  0
  4  7  1  0     0  0
  5  8  2  0     0  0
  5  9  1  0     0  0
  5 18  1  0     0  0
  6 10  1  0     0  0
  7 11  2  0     0  0
  8 12  1  0     0  0
  9 13  2  0     0  0
 10 14  2  0     0  0
 11 14  1  0     0  0
 12 15  2  0     0  0
 13 15  1  0     0  0
 16 19  1  0     0  0
 17 23  1  0     0  0
 19 20  1  0     0  0
 21 24  1  0     0  0
 22 25  1  0     0  0
 23 26  1  0     0  0
 23 27  1  0     0  0
 24 25  1  0     0  0
M  END
> <standard_type>
pIC50

> <# Confs.>
25

> <canonical_smiles>
CC(C)COCC(CN(CC1=CC=CC=C1)C2=CC=CC=C2)N3CCCC3

> <standard_relation>
=

> <Publication_ID>
nan

> <predicted_activity_value>
nan

> <actual_activity_value>
0.2596373105057561

> <Compound>
Bepridil

> <standard_units>
uM

> hash
4236522717873208673

$$$$
4
XXILIB    08252103503D 0   0.00000     0.00000

 27 29  0     1  0            999 V2000
   -1.9210   -1.1249   -0.9625 O   0  0  0  0  0  2           0  0  0
    2.0834   -0.0000   -1.3540 N   0  0  1  0  0  3           0  0  0
   -0.6440    0.0000    1.3278 N   0  0  1  0  0  3           0  0  0
    1.8004    1.0277   -2.2317 C   0  0  0  0  0  4           0  0  0
    4.3324   -0.5702   -2.0783 C   0  0  0  0  0  4           0  0  0
    1.1875    0.7921   -3.4782 C   0  0  0  0  0  4           0  0  0
    2.1087    2.3681   -1.9285 C   0  0  0  0  0  4           0  0  0
    5.3080   -0.4194   -1.0833 C   0  0  0  0  0  4           0  0  0
    4.6423   -0.2008   -3.3942 C   0  0  0  0  0  4           0  0  0
    0.8919    1.8335   -4.3657 C   0  0  0  0  0  4           0  0  0
    1.8150    3.4128   -2.8128 C   0  0  0  0  0  4           0  0  0
    6.5725    0.0793   -1.4008 C   0  0  0  0  0  4           0  0  0
    5.9082    0.2964   -3.7105 C   0  0  0  0  0  4           0  0  0
    1.2030    3.1457   -4.0310 C   0  0  0  0  0  4           0  0  0
    6.8727    0.4353   -2.7142 C   0  0  0  0  0  4           0  0  0
   -0.5074   -1.1984   -0.7983 C   0  0  0  0  0  4           0  0  0
   -2.4727   -2.2120   -1.7002 C   0  0  0  0  0  4           0  0  0
    2.9638   -1.0843   -1.7314 C   0  0  0  0  0  4           0  0  0
   -0.0000    0.0000    0.0000 C   0  0  2  0  0  4           0  0  0
    1.5315   -0.0000   -0.0000 C   0  0  0  0  0  4           0  0  0
   -0.3716   -1.2020    2.1161 C   0  0  0  0  0  4           0  0  0
   -0.2960    1.1199    2.2018 C   0  0  0  0  0  4           0  0  0
   -3.9860   -2.0557   -1.8291 C   0  0  1  0  0  4           0  0  0
   -0.8836   -0.8332    3.5018 C   0  0  0  0  0  4           0  0  0
   -0.8826    0.6912    3.5382 C   0  0  0  0  0  4           0  0  0
   -4.5974   -3.2147   -2.6190 C   0  0  0  0  0  4           0  0  0
   -4.6322   -1.9547   -0.4493 C   0  0  0  0  0  4           0  0  0
  1 16  1  0     0  0
  1 17  1  0     0  0
  2  4  1  0     0  0
  2 18  1  0     0  0
  2 20  1  0     0  0
  3 19  1  0     0  0
  3 21  1  0     0  0
  3 22  1  0     0  0
  4  6  2  0     0  0
  4  7  1  0     0  0
  5  8  2  0     0  0
  5  9  1  0     0  0
  5 18  1  0     0  0
  6 10  1  0     0  0
  7 11  2  0     0  0
  8 12  1  0     0  0
  9 13  2  0     0  0
 10 14  2  0     0  0
 11 14  1  0     0  0
 12 15  2  0     0  0
 13 15  1  0     0  0
 16 19  1  0     0  0
 17 23  1  0     0  0
 19 20  1  0     0  0
 21 24  1  0     0  0
 22 25  1  0     0  0
 23 26  1  0     0  0
 23 27  1  0     0  0
 24 25  1  0     0  0
M  END
> <standard_type>
pIC50

> <# Confs.>
25

> <canonical_smiles>
CC(C)COCC(CN(CC1=CC=CC=C1)C2=CC=CC=C2)N3CCCC3

> <standard_relation>
=

> <Publication_ID>
nan

> <predicted_activity_value>
nan

> <actual_activity_value>
0.2596373105057561

> <Compound>
Bepridil

> <standard_units>
uM

> hash
4236522717873208673

$$$$
4
XXILIB    08252103503D 0   0.00000     0.00000

 27 29  0     1  0            999 V2000
   -1.9210   -1.1249   -0.9625 O   0  0  0  0  0  2           0  0  0
    2.0834    0.0000   -1.3540 N   0  0  1  0  0  3           0  0  0
   -0.6440    0.0000    1.3278 N   0  0  1  0  0  3           0  0  0
    2.8993   -1.0277   -1.7837 C   0  0  0  0  0  4           0  0  0
    2.9362    1.8197   -2.7211 C   0  0  0  0  0  4           0  0  0
    2.5407   -1.8584   -2.8636 C   0  0  0  0  0  4           0  0  0
    4.1350   -1.3015   -1.1660 C   0  0  0  0  0  4           0  0  0
    3.6098    1.3989   -3.8760 C   0  0  0  0  0  4           0  0  0
    3.4375    2.9146   -2.0041 C   0  0  0  0  0  4           0  0  0
    3.3704   -2.8954   -3.3064 C   0  0  0  0  0  4           0  0  0
    4.9680   -2.3373   -1.6052 C   0  0  0  0  0  4           0  0  0
    4.7549    2.0678   -4.3117 C   0  0  0  0  0  4           0  0  0
    4.5821    3.5836   -2.4420 C   0  0  0  0  0  4           0  0  0
    4.5870   -3.1328   -2.6786 C   0  0  0  0  0  4           0  0  0
    5.2395    3.1607   -3.5958 C   0  0  0  0  0  4           0  0  0
   -0.5074   -1.1984   -0.7983 C   0  0  0  0  0  4           0  0  0
   -2.4727   -2.2120   -1.7002 C   0  0  0  0  0  4           0  0  0
    1.7177    1.0843   -2.2393 C   0  0  0  0  0  4           0  0  0
   -0.0000    0.0000    0.0000 C   0  0  2  0  0  4           0  0  0
    1.5315    0.0000    0.0000 C   0  0  0  0  0  4           0  0  0
   -0.3716   -1.2020    2.1161 C   0  0  0  0  0  4           0  0  0
   -0.2960    1.1199    2.2018 C   0  0  0  0  0  4           0  0  0
   -3.9860   -2.0557   -1.8291 C   0  0  1  0  0  4           0  0  0
   -0.8836   -0.8332    3.5018 C   0  0  0  0  0  4           0  0  0
   -0.8826    0.6912    3.5382 C   0  0  0  0  0  4           0  0  0
   -4.5974   -3.2147   -2.6190 C   0  0  0  0  0  4           0  0  0
   -4.6322   -1.9547   -0.4493 C   0  0  0  0  0  4           0  0  0
  1 16  1  0     0  0
  1 17  1  0     0  0
  2  4  1  0     0  0
  2 18  1  0     0  0
  2 20  1  0     0  0
  3 19  1  0     0  0
  3 21  1  0     0  0
  3 22  1  0     0  0
  4  6  2  0     0  0
  4  7  1  0     0  0
  5  8  2  0     0  0
  5  9  1  0     0  0
  5 18  1  0     0  0
  6 10  1  0     0  0
  7 11  2  0     0  0
  8 12  1  0     0  0
  9 13  2  0     0  0
 10 14  2  0     0  0
 11 14  1  0     0  0
 12 15  2  0     0  0
 13 15  1  0     0  0
 16 19  1  0     0  0
 17 23  1  0     0  0
 19 20  1  0     0  0
 21 24  1  0     0  0
 22 25  1  0     0  0
 23 26  1  0     0  0
 23 27  1  0     0  0
 24 25  1  0     0  0
M  END
> <standard_type>
pIC50

> <# Confs.>
25

> <canonical_smiles>
CC(C)COCC(CN(CC1=CC=CC=C1)C2=CC=CC=C2)N3CCCC3

> <standard_relation>
=

> <Publication_ID>
nan

> <predicted_activity_value>
nan

> <actual_activity_value>
0.2596373105057561

> <Compound>
Bepridil

> <standard_units>
uM

> hash
4236522717873208673

$$$$
4
XXILIB    08252103503D 0   0.00000     0.00000

 27 29  0     1  0            999 V2000
    0.0961   -1.2285   -2.0889 O   0  0  0  0  0  2           0  0  0
    2.0834    1.1726    0.6770 N   0  0  1  0  0  3           0  0  0
   -0.6440    0.0000    1.3278 N   0  0  1  0  0  3           0  0  0
    1.8004    2.4465    0.2258 C   0  0  0  0  0  4           0  0  0
    4.1275    0.1623    1.5188 C   0  0  0  0  0  4           0  0  0
    1.5847    2.7199   -1.1393 C   0  0  0  0  0  4           0  0  0
    1.7115    3.5425    1.1060 C   0  0  0  0  0  4           0  0  0
    4.7322   -0.6505    2.4874 C   0  0  0  0  0  4           0  0  0
    4.7070    0.2464    0.2455 C   0  0  0  0  0  4           0  0  0
    1.2891    4.0092   -1.5978 C   0  0  0  0  0  4           0  0  0
    1.4162    4.8334    0.6522 C   0  0  0  0  0  4           0  0  0
    5.8866   -1.3745    2.1843 C   0  0  0  0  0  4           0  0  0
    5.8608   -0.4795   -0.0566 C   0  0  0  0  0  4           0  0  0
    1.2015    5.0664   -0.7005 C   0  0  0  0  0  4           0  0  0
    6.4493   -1.2901    0.9123 C   0  0  0  0  0  4           0  0  0
   -0.5074   -1.1984   -0.7983 C   0  0  0  0  0  4           0  0  0
   -0.3279   -2.3222   -2.8979 C   0  0  0  0  0  4           0  0  0
    2.8988    0.9600    1.8531 C   0  0  0  0  0  4           0  0  0
    0.0000    0.0000    0.0000 C   0  0  2  0  0  4           0  0  0
    1.5315    0.0000   -0.0000 C   0  0  0  0  0  4           0  0  0
   -2.1034    0.0908    1.2761 C   0  0  0  0  0  4           0  0  0
   -0.3608   -1.1614    2.1704 C   0  0  0  0  0  4           0  0  0
    0.3640   -2.2792   -4.2582 C   0  0  1  0  0  4           0  0  0
   -2.5224   -0.2184    2.7069 C   0  0  0  0  0  4           0  0  0
   -1.3563   -0.9951    3.3085 C   0  0  0  0  0  4           0  0  0
   -0.0789   -3.4469   -5.1423 C   0  0  0  0  0  4           0  0  0
    0.0870   -0.9499   -4.9568 C   0  0  0  0  0  4           0  0  0
  1 16  1  0     0  0
  1 17  1  0     0  0
  2  4  1  0     0  0
  2 18  1  0     0  0
  2 20  1  0     0  0
  3 19  1  0     0  0
  3 21  1  0     0  0
  3 22  1  0     0  0
  4  6  2  0     0  0
  4  7  1  0     0  0
  5  8  2  0     0  0
  5  9  1  0     0  0
  5 18  1  0     0  0
  6 10  1  0     0  0
  7 11  2  0     0  0
  8 12  1  0     0  0
  9 13  2  0     0  0
 10 14  2  0     0  0
 11 14  1  0     0  0
 12 15  2  0     0  0
 13 15  1  0     0  0
 16 19  1  0     0  0
 17 23  1  0     0  0
 19 20  1  0     0  0
 21 24  1  0     0  0
 22 25  1  0     0  0
 23 26  1  0     0  0
 23 27  1  0     0  0
 24 25  1  0     0  0
M  END
> <standard_type>
pIC50

> <# Confs.>
25

> <canonical_smiles>
CC(C)COCC(CN(CC1=CC=CC=C1)C2=CC=CC=C2)N3CCCC3

> <standard_relation>
=

> <Publication_ID>
nan

> <predicted_activity_value>
nan

> <actual_activity_value>
0.2596373105057561

> <Compound>
Bepridil

> <standard_units>
uM

> hash
4236522717873208673

$$$$
4
XXILIB    08252103503D 0   0.00000     0.00000

 27 29  0     1  0            999 V2000
   -0.1937   -2.4143   -0.1247 O   0  0  0  0  0  2           0  0  0
    2.0834    0.0000   -1.3540 N   0  0  1  0  0  3           0  0  0
   -0.6440    0.0000    1.3278 N   0  0  1  0  0  3           0  0  0
    2.8993   -1.0277   -1.7837 C   0  0  0  0  0  4           0  0  0
    2.9362    1.8197   -2.7211 C   0  0  0  0  0  4           0  0  0
    2.5407   -1.8584   -2.8636 C   0  0  0  0  0  4           0  0  0
    4.1350   -1.3015   -1.1660 C   0  0  0  0  0  4           0  0  0
    3.6098    1.3989   -3.8760 C   0  0  0  0  0  4           0  0  0
    3.4375    2.9146   -2.0041 C   0  0  0  0  0  4           0  0  0
    3.3704   -2.8954   -3.3064 C   0  0  0  0  0  4           0  0  0
    4.9680   -2.3373   -1.6052 C   0  0  0  0  0  4           0  0  0
    4.7549    2.0678   -4.3117 C   0  0  0  0  0  4           0  0  0
    4.5821    3.5836   -2.4420 C   0  0  0  0  0  4           0  0  0
    4.5870   -3.1328   -2.6786 C   0  0  0  0  0  4           0  0  0
    5.2395    3.1607   -3.5958 C   0  0  0  0  0  4           0  0  0
   -0.5074   -1.1984   -0.7983 C   0  0  0  0  0  4           0  0  0
   -0.6360   -3.5831   -0.8093 C   0  0  0  0  0  4           0  0  0
    1.7177    1.0843   -2.2393 C   0  0  0  0  0  4           0  0  0
    0.0000    0.0000    0.0000 C   0  0  2  0  0  4           0  0  0
    1.5315    0.0000    0.0000 C   0  0  0  0  0  4           0  0  0
   -0.2301    1.1112    2.1847 C   0  0  0  0  0  4           0  0  0
   -2.1060    0.0415    1.3238 C   0  0  0  0  0  4           0  0  0
   -0.2610   -4.8364   -0.0223 C   0  0  1  0  0  4           0  0  0
   -1.2239    1.0516    3.3367 C   0  0  0  0  0  4           0  0  0
   -2.4334    0.3039    2.7860 C   0  0  0  0  0  4           0  0  0
   -0.7281   -6.1032   -0.7422 C   0  0  0  0  0  4           0  0  0
    1.2465   -4.8867    0.2158 C   0  0  0  0  0  4           0  0  0
  1 16  1  0     0  0
  1 17  1  0     0  0
  2  4  1  0     0  0
  2 18  1  0     0  0
  2 20  1  0     0  0
  3 19  1  0     0  0
  3 21  1  0     0  0
  3 22  1  0     0  0
  4  6  2  0     0  0
  4  7  1  0     0  0
  5  8  2  0     0  0
  5  9  1  0     0  0
  5 18  1  0     0  0
  6 10  1  0     0  0
  7 11  2  0     0  0
  8 12  1  0     0  0
  9 13  2  0     0  0
 10 14  2  0     0  0
 11 14  1  0     0  0
 12 15  2  0     0  0
 13 15  1  0     0  0
 16 19  1  0     0  0
 17 23  1  0     0  0
 19 20  1  0     0  0
 21 24  1  0     0  0
 22 25  1  0     0  0
 23 26  1  0     0  0
 23 27  1  0     0  0
 24 25  1  0     0  0
M  END
> <standard_type>
pIC50

> <# Confs.>
25

> <canonical_smiles>
CC(C)COCC(CN(CC1=CC=CC=C1)C2=CC=CC=C2)N3CCCC3

> <standard_relation>
=

> <Publication_ID>
nan

> <predicted_activity_value>
nan

> <actual_activity_value>
0.2596373105057561

> <Compound>
Bepridil

> <standard_units>
uM

> hash
4236522717873208673

$$$$
4
XXILIB    08252103503D 0   0.00000     0.00000

 27 29  0     1  0            999 V2000
    0.0961   -1.2285   -2.0889 O   0  0  0  0  0  2           0  0  0
    2.0834    1.1726    0.6770 N   0  0  1  0  0  3           0  0  0
   -0.6440    0.0000    1.3278 N   0  0  1  0  0  3           0  0  0
    2.8993    1.0309    1.7819 C   0  0  0  0  0  4           0  0  0
    3.0374    3.1830   -0.3008 C   0  0  0  0  0  4           0  0  0
    2.5781    1.6169    3.0222 C   0  0  0  0  0  4           0  0  0
    4.0974    0.2924    1.7294 C   0  0  0  0  0  4           0  0  0
    3.5417    3.0037   -1.5962 C   0  0  0  0  0  4           0  0  0
    3.7406    4.0006    0.5942 C   0  0  0  0  0  4           0  0  0
    3.3995    1.4673    4.1458 C   0  0  0  0  0  4           0  0  0
    4.9219    0.1399    2.8503 C   0  0  0  0  0  4           0  0  0
    4.7195    3.6398   -1.9922 C   0  0  0  0  0  4           0  0  0
    4.9177    4.6374    0.1961 C   0  0  0  0  0  4           0  0  0
    4.5710    0.7251    4.0605 C   0  0  0  0  0  4           0  0  0
    5.4060    4.4576   -1.0967 C   0  0  0  0  0  4           0  0  0
   -0.5074   -1.1984   -0.7983 C   0  0  0  0  0  4           0  0  0
   -0.3279   -2.3222   -2.8979 C   0  0  0  0  0  4           0  0  0
    1.7827    2.4788    0.1323 C   0  0  0  0  0  4           0  0  0
    0.0000    0.0000    0.0000 C   0  0  2  0  0  4           0  0  0
    1.5315    0.0000    0.0000 C   0  0  0  0  0  4           0  0  0
   -2.1034    0.0908    1.2761 C   0  0  0  0  0  4           0  0  0
   -0.3608   -1.1614    2.1704 C   0  0  0  0  0  4           0  0  0
    0.3640   -2.2792   -4.2582 C   0  0  1  0  0  4           0  0  0
   -2.5224   -0.2184    2.7069 C   0  0  0  0  0  4           0  0  0
   -1.3563   -0.9951    3.3085 C   0  0  0  0  0  4           0  0  0
   -0.0789   -3.4469   -5.1423 C   0  0  0  0  0  4           0  0  0
    0.0870   -0.9499   -4.9568 C   0  0  0  0  0  4           0  0  0
  1 16  1  0     0  0
  1 17  1  0     0  0
  2  4  1  0     0  0
  2 18  1  0     0  0
  2 20  1  0     0  0
  3 19  1  0     0  0
  3 21  1  0     0  0
  3 22  1  0     0  0
  4  6  2  0     0  0
  4  7  1  0     0  0
  5  8  2  0     0  0
  5  9  1  0     0  0
  5 18  1  0     0  0
  6 10  1  0     0  0
  7 11  2  0     0  0
  8 12  1  0     0  0
  9 13  2  0     0  0
 10 14  2  0     0  0
 11 14  1  0     0  0
 12 15  2  0     0  0
 13 15  1  0     0  0
 16 19  1  0     0  0
 17 23  1  0     0  0
 19 20  1  0     0  0
 21 24  1  0     0  0
 22 25  1  0     0  0
 23 26  1  0     0  0
 23 27  1  0     0  0
 24 25  1  0     0  0
M  END
> <standard_type>
pIC50

> <# Confs.>
25

> <canonical_smiles>
CC(C)COCC(CN(CC1=CC=CC=C1)C2=CC=CC=C2)N3CCCC3

> <standard_relation>
=

> <Publication_ID>
nan

> <predicted_activity_value>
nan

> <actual_activity_value>
0.2596373105057561

> <Compound>
Bepridil

> <standard_units>
uM

> hash
4236522717873208673

$$$$
11
XXILIB    08252103503D 0   0.00000     0.00000

 24 27  0     1  0            999 V2000
   -2.6229   -3.4355    4.5273 Cl  0  0  0  0  0  1           0  0  0
    0.0188    0.5757    2.3270 O   0  0  0  0  0  2           0  0  0
   -0.6614    0.0000    1.2482 N   0  0  2  0  0  3           0  0  0
   -3.0996   -0.2034   -0.4021 N   0  0  0  0  0  3           0  0  0
    1.3974   -0.0000    0.0000 N   0  0  2  0  0  3           0  0  0
    4.2549    0.0050    0.0261 N   0  0  2  0  0  3           0  0  0
   -2.7156   -2.5207    3.0720 C   0  0  0  0  0  4           0  0  0
   -2.1864    0.2190   -1.2125 C   0  0  0  0  0  4           0  0  0
   -1.7392   -0.8707    1.5538 C   0  0  0  0  0  4           0  0  0
   -2.8501   -1.0085    0.7119 C   0  0  0  0  0  4           0  0  0
   -0.6851    0.0286   -1.1817 C   0  0  0  0  0  4           0  0  0
   -1.6975   -1.6242    2.7480 C   0  0  0  0  0  4           0  0  0
   -3.8011   -2.6784    2.2233 C   0  0  0  0  0  4           0  0  0
   -2.6828    0.9843   -2.4044 C   0  0  0  0  0  4           0  0  0
   -3.8671   -1.9175    1.0582 C   0  0  0  0  0  4           0  0  0
   -0.0436   -0.0417   -2.4949 C   0  0  0  0  0  4           0  0  0
   -1.9287    1.0795   -3.5053 C   0  0  0  0  0  4           0  0  0
   -0.6374    0.4512   -3.5894 C   0  0  0  0  0  4           0  0  0
    0.0000   -0.0000    0.0000 C   0  0  0  0  0  4           0  0  0
    2.1296   -1.1003    0.6353 C   0  0  0  0  0  4           0  0  0
    2.1302    1.2701   -0.0156 C   0  0  0  0  0  4           0  0  0
    3.5041   -1.2582   -0.0175 C   0  0  0  0  0  4           0  0  0
    3.5065    1.0722   -0.6539 C   0  0  0  0  0  4           0  0  0
    5.5749   -0.1619   -0.5817 C   0  0  0  0  0  4           0  0  0
  1  7  1  0     0  0
  2  3  1  0     0  0
  3  9  1  0     0  0
  3 19  1  0     0  0
  4  8  2  0     0  0
  4 10  1  0     0  0
  5 19  1  0     0  0
  5 20  1  0     0  0
  5 21  1  0     0  0
  6 22  1  0     0  0
  6 23  1  0     0  0
  6 24  1  0     0  0
  7 12  2  0     0  0
  7 13  1  0     0  0
  8 11  1  0     0  0
  8 14  1  0     0  0
  9 10  2  0     0  0
  9 12  1  0     0  0
 10 15  1  0     0  0
 11 16  1  0     0  0
 11 19  2  0     0  0
 13 15  2  0     0  0
 14 17  2  0     0  0
 16 18  2  0     0  0
 17 18  1  0     0  0
 20 22  1  0     0  0
 21 23  1  0     0  0
M  END
> <standard_type>
pIC50

> <# Confs.>
7

> <canonical_smiles>
ClC(C=C1)=CC(N2O)=C1N=C3C=CC=CC3=C2N4CCN(C)CC4

> <standard_relation>
=

> <Publication_ID>
nan

> <predicted_activity_value>
nan

> <actual_activity_value>
-2.1248301494138593

> <Compound>
Clozapine-N-oxide

> <standard_units>
uM

> hash
12475077875966811103

$$$$
11
XXILIB    08252103503D 0   0.00000     0.00000

 24 27  0     1  0            999 V2000
   -2.6229   -3.4355    4.5273 Cl  0  0  0  0  0  1           0  0  0
    0.0188    0.5757    2.3270 O   0  0  0  0  0  2           0  0  0
   -0.6614    0.0000    1.2482 N   0  0  2  0  0  3           0  0  0
   -3.0996   -0.2034   -0.4021 N   0  0  0  0  0  3           0  0  0
    1.4056    0.0000   -0.0000 N   0  0  2  0  0  3           0  0  0
    4.1141    0.4706    0.7969 N   0  0  2  0  0  3           0  0  0
   -2.7156   -2.5207    3.0720 C   0  0  0  0  0  4           0  0  0
   -2.1864    0.2190   -1.2125 C   0  0  0  0  0  4           0  0  0
   -1.7392   -0.8707    1.5538 C   0  0  0  0  0  4           0  0  0
   -2.8501   -1.0085    0.7119 C   0  0  0  0  0  4           0  0  0
   -0.6851    0.0286   -1.1817 C   0  0  0  0  0  4           0  0  0
   -1.6975   -1.6242    2.7480 C   0  0  0  0  0  4           0  0  0
   -3.8011   -2.6784    2.2233 C   0  0  0  0  0  4           0  0  0
   -2.6828    0.9843   -2.4044 C   0  0  0  0  0  4           0  0  0
   -3.8671   -1.9175    1.0582 C   0  0  0  0  0  4           0  0  0
   -0.0436   -0.0417   -2.4949 C   0  0  0  0  0  4           0  0  0
   -1.9287    1.0795   -3.5053 C   0  0  0  0  0  4           0  0  0
   -0.6374    0.4512   -3.5894 C   0  0  0  0  0  4           0  0  0
    0.0000   -0.0000    0.0000 C   0  0  0  0  0  4           0  0  0
    2.1938   -1.0737    0.6199 C   0  0  0  0  0  4           0  0  0
    2.2287    0.9812   -0.7206 C   0  0  0  0  0  4           0  0  0
    3.2632   -0.4727    1.5353 C   0  0  0  0  0  4           0  0  0
    3.3007    1.5473    0.2146 C   0  0  0  0  0  4           0  0  0
    5.1485    1.0239    1.6701 C   0  0  0  0  0  4           0  0  0
  1  7  1  0     0  0
  2  3  1  0     0  0
  3  9  1  0     0  0
  3 19  1  0     0  0
  4  8  2  0     0  0
  4 10  1  0     0  0
  5 19  1  0     0  0
  5 20  1  0     0  0
  5 21  1  0     0  0
  6 22  1  0     0  0
  6 23  1  0     0  0
  6 24  1  0     0  0
  7 12  2  0     0  0
  7 13  1  0     0  0
  8 11  1  0     0  0
  8 14  1  0     0  0
  9 10  2  0     0  0
  9 12  1  0     0  0
 10 15  1  0     0  0
 11 16  1  0     0  0
 11 19  2  0     0  0
 13 15  2  0     0  0
 14 17  2  0     0  0
 16 18  2  0     0  0
 17 18  1  0     0  0
 20 22  1  0     0  0
 21 23  1  0     0  0
M  END
> <standard_type>
pIC50

> <# Confs.>
7

> <canonical_smiles>
ClC(C=C1)=CC(N2O)=C1N=C3C=CC=CC3=C2N4CCN(C)CC4

> <standard_relation>
=

> <Publication_ID>
nan

> <predicted_activity_value>
nan

> <actual_activity_value>
-2.1248301494138593

> <Compound>
Clozapine-N-oxide

> <standard_units>
uM

> hash
12475077875966811103

$$$$
11
XXILIB    08252103503D 0   0.00000     0.00000

 24 27  0     1  0            999 V2000
   -2.8465    3.2766    4.5508 Cl  0  0  0  0  0  1           0  0  0
    0.0007   -0.6035    2.3206 O   0  0  0  0  0  2           0  0  0
   -0.6641   -0.0000    1.2450 N   0  0  2  0  0  3           0  0  0
   -3.0966    0.1286   -0.4475 N   0  0  0  0  0  3           0  0  0
    1.3974   -0.0000   -0.0000 N   0  0  2  0  0  3           0  0  0
    4.2549   -0.0087    0.0251 N   0  0  2  0  0  3           0  0  0
   -2.8739    2.3844    3.0788 C   0  0  0  0  0  4           0  0  0
   -2.1615   -0.2539   -1.2515 C   0  0  0  0  0  4           0  0  0
   -1.7894    0.8135    1.5432 C   0  0  0  0  0  4           0  0  0
   -2.8949    0.9140    0.6887 C   0  0  0  0  0  4           0  0  0
   -0.6665   -0.0378   -1.1912 C   0  0  0  0  0  4           0  0  0
   -1.8060    1.5481    2.7515 C   0  0  0  0  0  4           0  0  0
   -3.9561    2.4995    2.2207 C   0  0  0  0  0  4           0  0  0
   -2.6273   -0.9998   -2.4683 C   0  0  0  0  0  4           0  0  0
   -3.9643    1.7611    1.0401 C   0  0  0  0  0  4           0  0  0
    0.0068    0.0382   -2.4892 C   0  0  0  0  0  4           0  0  0
   -1.8517   -1.0730   -3.5558 C   0  0  0  0  0  4           0  0  0
   -0.5595   -0.4439   -3.6024 C   0  0  0  0  0  4           0  0  0
    0.0000    0.0000    0.0000 C   0  0  0  0  0  4           0  0  0
    2.1296   -1.2706    0.0000 C   0  0  0  0  0  4           0  0  0
    2.1302    1.1077    0.6215 C   0  0  0  0  0  4           0  0  0
    3.5041   -1.0808   -0.6442 C   0  0  0  0  0  4           0  0  0
    3.5065    1.2555   -0.0302 C   0  0  0  0  0  4           0  0  0
    5.5749    0.1506   -0.5847 C   0  0  0  0  0  4           0  0  0
  1  7  1  0     0  0
  2  3  1  0     0  0
  3  9  1  0     0  0
  3 19  1  0     0  0
  4  8  2  0     0  0
  4 10  1  0     0  0
  5 19  1  0     0  0
  5 20  1  0     0  0
  5 21  1  0     0  0
  6 22  1  0     0  0
  6 23  1  0     0  0
  6 24  1  0     0  0
  7 12  2  0     0  0
  7 13  1  0     0  0
  8 11  1  0     0  0
  8 14  1  0     0  0
  9 10  2  0     0  0
  9 12  1  0     0  0
 10 15  1  0     0  0
 11 16  1  0     0  0
 11 19  2  0     0  0
 13 15  2  0     0  0
 14 17  2  0     0  0
 16 18  2  0     0  0
 17 18  1  0     0  0
 20 22  1  0     0  0
 21 23  1  0     0  0
M  END
> <standard_type>
pIC50

> <# Confs.>
7

> <canonical_smiles>
ClC(C=C1)=CC(N2O)=C1N=C3C=CC=CC3=C2N4CCN(C)CC4

> <standard_relation>
=

> <Publication_ID>
nan

> <predicted_activity_value>
nan

> <actual_activity_value>
-2.1248301494138593

> <Compound>
Clozapine-N-oxide

> <standard_units>
uM

> hash
12475077875966811103

$$$$
11
XXILIB    08252103503D 0   0.00000     0.00000

 24 27  0     1  0            999 V2000
   -3.8742   -0.1663    5.2293 Cl  0  0  0  0  0  1           0  0  0
    0.2986    0.0278    2.3406 O   0  0  0  0  0  2           0  0  0
   -0.6164   -0.0000    1.2663 N   0  0  2  0  0  3           0  0  0
   -3.0692    0.0158   -0.6158 N   0  0  0  0  0  3           0  0  0
    1.3974   -0.0000   -0.0000 N   0  0  2  0  0  3           0  0  0
    4.2549   -0.0087    0.0251 N   0  0  2  0  0  3           0  0  0
   -3.5953   -0.1114    3.5319 C   0  0  0  0  0  4           0  0  0
   -2.0841    0.0270   -1.4414 C   0  0  0  0  0  4           0  0  0
   -1.9881   -0.0337    1.6405 C   0  0  0  0  0  4           0  0  0
   -3.0763   -0.0284    0.7674 C   0  0  0  0  0  4           0  0  0
   -0.5937    0.0035   -1.2294 C   0  0  0  0  0  4           0  0  0
   -2.2903   -0.0758    3.0357 C   0  0  0  0  0  4           0  0  0
   -4.6600   -0.1040    2.6574 C   0  0  0  0  0  4           0  0  0
   -2.5454    0.0701   -2.8737 C   0  0  0  0  0  4           0  0  0
   -4.3930   -0.0630    1.2947 C   0  0  0  0  0  4           0  0  0
    0.2317   -0.0050   -2.4553 C   0  0  0  0  0  4           0  0  0
   -1.6929    0.0678   -3.8999 C   0  0  0  0  0  4           0  0  0
   -0.2802    0.0233   -3.6903 C   0  0  0  0  0  4           0  0  0
    0.0000    0.0000    0.0000 C   0  0  0  0  0  4           0  0  0
    2.1296   -1.2706    0.0000 C   0  0  0  0  0  4           0  0  0
    2.1302    1.1077    0.6215 C   0  0  0  0  0  4           0  0  0
    3.5041   -1.0808   -0.6442 C   0  0  0  0  0  4           0  0  0
    3.5065    1.2555   -0.0302 C   0  0  0  0  0  4           0  0  0
    5.5749    0.1506   -0.5847 C   0  0  0  0  0  4           0  0  0
  1  7  1  0     0  0
  2  3  1  0     0  0
  3  9  1  0     0  0
  3 19  1  0     0  0
  4  8  2  0     0  0
  4 10  1  0     0  0
  5 19  1  0     0  0
  5 20  1  0     0  0
  5 21  1  0     0  0
  6 22  1  0     0  0
  6 23  1  0     0  0
  6 24  1  0     0  0
  7 12  2  0     0  0
  7 13  1  0     0  0
  8 11  1  0     0  0
  8 14  1  0     0  0
  9 10  2  0     0  0
  9 12  1  0     0  0
 10 15  1  0     0  0
 11 16  1  0     0  0
 11 19  2  0     0  0
 13 15  2  0     0  0
 14 17  2  0     0  0
 16 18  2  0     0  0
 17 18  1  0     0  0
 20 22  1  0     0  0
 21 23  1  0     0  0
M  END
> <standard_type>
pIC50

> <# Confs.>
7

> <canonical_smiles>
ClC(C=C1)=CC(N2O)=C1N=C3C=CC=CC3=C2N4CCN(C)CC4

> <standard_relation>
=

> <Publication_ID>
nan

> <predicted_activity_value>
nan

> <actual_activity_value>
-2.1248301494138593

> <Compound>
Clozapine-N-oxide

> <standard_units>
uM

> hash
12475077875966811103

$$$$
11
XXILIB    08252103503D 0   0.00000     0.00000

 24 27  0     1  0            999 V2000
   -2.8465    3.2766    4.5508 Cl  0  0  0  0  0  1           0  0  0
    0.0007   -0.6035    2.3206 O   0  0  0  0  0  2           0  0  0
   -0.6641   -0.0000    1.2450 N   0  0  2  0  0  3           0  0  0
   -3.0966    0.1286   -0.4475 N   0  0  0  0  0  3           0  0  0
    1.4056    0.0000   -0.0000 N   0  0  2  0  0  3           0  0  0
    4.1141    0.0091    0.9254 N   0  0  2  0  0  3           0  0  0
   -2.8739    2.3844    3.0788 C   0  0  0  0  0  4           0  0  0
   -2.1615   -0.2539   -1.2515 C   0  0  0  0  0  4           0  0  0
   -1.7894    0.8135    1.5432 C   0  0  0  0  0  4           0  0  0
   -2.8949    0.9140    0.6887 C   0  0  0  0  0  4           0  0  0
   -0.6665   -0.0378   -1.1912 C   0  0  0  0  0  4           0  0  0
   -1.8060    1.5481    2.7515 C   0  0  0  0  0  4           0  0  0
   -3.9561    2.4995    2.2207 C   0  0  0  0  0  4           0  0  0
   -2.6273   -0.9998   -2.4683 C   0  0  0  0  0  4           0  0  0
   -3.9643    1.7611    1.0401 C   0  0  0  0  0  4           0  0  0
    0.0068    0.0382   -2.4892 C   0  0  0  0  0  4           0  0  0
   -1.8517   -1.0730   -3.5558 C   0  0  0  0  0  4           0  0  0
   -0.5595   -0.4439   -3.6024 C   0  0  0  0  0  4           0  0  0
    0.0000    0.0000    0.0000 C   0  0  0  0  0  4           0  0  0
    2.1938   -1.2398    0.0000 C   0  0  0  0  0  4           0  0  0
    2.2287    1.2101   -0.1335 C   0  0  0  0  0  4           0  0  0
    3.2632   -1.1770    1.0932 C   0  0  0  0  0  4           0  0  0
    3.3007    1.2327    0.9595 C   0  0  0  0  0  4           0  0  0
    5.1485    0.0516    1.9583 C   0  0  0  0  0  4           0  0  0
  1  7  1  0     0  0
  2  3  1  0     0  0
  3  9  1  0     0  0
  3 19  1  0     0  0
  4  8  2  0     0  0
  4 10  1  0     0  0
  5 19  1  0     0  0
  5 20  1  0     0  0
  5 21  1  0     0  0
  6 22  1  0     0  0
  6 23  1  0     0  0
  6 24  1  0     0  0
  7 12  2  0     0  0
  7 13  1  0     0  0
  8 11  1  0     0  0
  8 14  1  0     0  0
  9 10  2  0     0  0
  9 12  1  0     0  0
 10 15  1  0     0  0
 11 16  1  0     0  0
 11 19  2  0     0  0
 13 15  2  0     0  0
 14 17  2  0     0  0
 16 18  2  0     0  0
 17 18  1  0     0  0
 20 22  1  0     0  0
 21 23  1  0     0  0
M  END
> <standard_type>
pIC50

> <# Confs.>
7

> <canonical_smiles>
ClC(C=C1)=CC(N2O)=C1N=C3C=CC=CC3=C2N4CCN(C)CC4

> <standard_relation>
=

> <Publication_ID>
nan

> <predicted_activity_value>
nan

> <actual_activity_value>
-2.1248301494138593

> <Compound>
Clozapine-N-oxide

> <standard_units>
uM

> hash
12475077875966811103

$$$$
11
XXILIB    08252103503D 0   0.00000     0.00000

 24 27  0     1  0            999 V2000
   -3.8742   -0.1663    5.2293 Cl  0  0  0  0  0  1           0  0  0
    0.2986    0.0278    2.3406 O   0  0  0  0  0  2           0  0  0
   -0.6164   -0.0000    1.2663 N   0  0  2  0  0  3           0  0  0
   -3.0692    0.0158   -0.6158 N   0  0  0  0  0  3           0  0  0
    1.4056    0.0000   -0.0000 N   0  0  2  0  0  3           0  0  0
    4.1141    0.0091    0.9254 N   0  0  2  0  0  3           0  0  0
   -3.5953   -0.1114    3.5319 C   0  0  0  0  0  4           0  0  0
   -2.0841    0.0270   -1.4414 C   0  0  0  0  0  4           0  0  0
   -1.9881   -0.0337    1.6405 C   0  0  0  0  0  4           0  0  0
   -3.0763   -0.0284    0.7674 C   0  0  0  0  0  4           0  0  0
   -0.5937    0.0035   -1.2294 C   0  0  0  0  0  4           0  0  0
   -2.2903   -0.0758    3.0357 C   0  0  0  0  0  4           0  0  0
   -4.6600   -0.1040    2.6574 C   0  0  0  0  0  4           0  0  0
   -2.5454    0.0701   -2.8737 C   0  0  0  0  0  4           0  0  0
   -4.3930   -0.0630    1.2947 C   0  0  0  0  0  4           0  0  0
    0.2317   -0.0050   -2.4553 C   0  0  0  0  0  4           0  0  0
   -1.6929    0.0678   -3.8999 C   0  0  0  0  0  4           0  0  0
   -0.2802    0.0233   -3.6903 C   0  0  0  0  0  4           0  0  0
    0.0000    0.0000    0.0000 C   0  0  0  0  0  4           0  0  0
    2.1938   -1.2398    0.0000 C   0  0  0  0  0  4           0  0  0
    2.2287    1.2101   -0.1335 C   0  0  0  0  0  4           0  0  0
    3.2632   -1.1770    1.0932 C   0  0  0  0  0  4           0  0  0
    3.3007    1.2327    0.9595 C   0  0  0  0  0  4           0  0  0
    5.1485    0.0516    1.9583 C   0  0  0  0  0  4           0  0  0
  1  7  1  0     0  0
  2  3  1  0     0  0
  3  9  1  0     0  0
  3 19  1  0     0  0
  4  8  2  0     0  0
  4 10  1  0     0  0
  5 19  1  0     0  0
  5 20  1  0     0  0
  5 21  1  0     0  0
  6 22  1  0     0  0
  6 23  1  0     0  0
  6 24  1  0     0  0
  7 12  2  0     0  0
  7 13  1  0     0  0
  8 11  1  0     0  0
  8 14  1  0     0  0
  9 10  2  0     0  0
  9 12  1  0     0  0
 10 15  1  0     0  0
 11 16  1  0     0  0
 11 19  2  0     0  0
 13 15  2  0     0  0
 14 17  2  0     0  0
 16 18  2  0     0  0
 17 18  1  0     0  0
 20 22  1  0     0  0
 21 23  1  0     0  0
M  END
> <standard_type>
pIC50

> <# Confs.>
7

> <canonical_smiles>
ClC(C=C1)=CC(N2O)=C1N=C3C=CC=CC3=C2N4CCN(C)CC4

> <standard_relation>
=

> <Publication_ID>
nan

> <predicted_activity_value>
nan

> <actual_activity_value>
-2.1248301494138593

> <Compound>
Clozapine-N-oxide

> <standard_units>
uM

> hash
12475077875966811103

$$$$
11
XXILIB    08252103503D 0   0.00000     0.00000

 24 27  0     1  0            999 V2000
   -2.6229   -3.4355    4.5273 Cl  0  0  0  0  0  1           0  0  0
    0.0188    0.5757    2.3270 O   0  0  0  0  0  2           0  0  0
   -0.6614    0.0000    1.2482 N   0  0  2  0  0  3           0  0  0
   -3.0996   -0.2034   -0.4021 N   0  0  0  0  0  3           0  0  0
    1.4068   -0.0000    0.0000 N   0  0  2  0  0  3           0  0  0
    4.1640   -0.5402    0.7222 N   0  0  2  0  0  3           0  0  0
   -2.7156   -2.5207    3.0720 C   0  0  0  0  0  4           0  0  0
   -2.1864    0.2190   -1.2125 C   0  0  0  0  0  4           0  0  0
   -1.7392   -0.8707    1.5538 C   0  0  0  0  0  4           0  0  0
   -2.8501   -1.0085    0.7119 C   0  0  0  0  0  4           0  0  0
   -0.6851    0.0286   -1.1817 C   0  0  0  0  0  4           0  0  0
   -1.6975   -1.6242    2.7480 C   0  0  0  0  0  4           0  0  0
   -3.8011   -2.6784    2.2233 C   0  0  0  0  0  4           0  0  0
   -2.6828    0.9843   -2.4044 C   0  0  0  0  0  4           0  0  0
   -3.8671   -1.9175    1.0582 C   0  0  0  0  0  4           0  0  0
   -0.0436   -0.0417   -2.4949 C   0  0  0  0  0  4           0  0  0
   -1.9287    1.0795   -3.5053 C   0  0  0  0  0  4           0  0  0
   -0.6374    0.4512   -3.5894 C   0  0  0  0  0  4           0  0  0
    0.0000   -0.0000    0.0000 C   0  0  0  0  0  4           0  0  0
    2.2237    1.0590    0.6114 C   0  0  0  0  0  4           0  0  0
    2.1883   -0.9761   -0.7729 C   0  0  0  0  0  4           0  0  0
    3.3459    0.4385    1.4491 C   0  0  0  0  0  4           0  0  0
    3.3109   -1.5557    0.0926 C   0  0  0  0  0  4           0  0  0
    5.0676    0.0947   -0.2339 C   0  0  0  0  0  4           0  0  0
  1  7  1  0     0  0
  2  3  1  0     0  0
  3  9  1  0     0  0
  3 19  1  0     0  0
  4  8  2  0     0  0
  4 10  1  0     0  0
  5 19  1  0     0  0
  5 20  1  0     0  0
  5 21  1  0     0  0
  6 22  1  0     0  0
  6 23  1  0     0  0
  6 24  1  0     0  0
  7 12  2  0     0  0
  7 13  1  0     0  0
  8 11  1  0     0  0
  8 14  1  0     0  0
  9 10  2  0     0  0
  9 12  1  0     0  0
 10 15  1  0     0  0
 11 16  1  0     0  0
 11 19  2  0     0  0
 13 15  2  0     0  0
 14 17  2  0     0  0
 16 18  2  0     0  0
 17 18  1  0     0  0
 20 22  1  0     0  0
 21 23  1  0     0  0
M  END
> <standard_type>
pIC50

> <# Confs.>
7

> <canonical_smiles>
ClC(C=C1)=CC(N2O)=C1N=C3C=CC=CC3=C2N4CCN(C)CC4

> <standard_relation>
=

> <Publication_ID>
nan

> <predicted_activity_value>
nan

> <actual_activity_value>
-2.1248301494138593

> <Compound>
Clozapine-N-oxide

> <standard_units>
uM

> hash
12475077875966811103

$$$$
9
XXILIB    08252103503D 0   0.00000     0.00000

 32 34  0     1  0            999 V2000
   -9.4801    4.1985    1.4887 Cl  0  0  0  0  0  1           0  0  0
    2.0413   -8.8011   -0.6938 F   0  0  0  0  0  1           0  0  0
    2.5803   -3.5417    0.7830 O   0  0  0  0  0  2           0  0  0
   -6.0859   -0.0711   -0.7620 O   0  0  0  0  0  2           0  0  0
   -4.4260    3.3696    0.3541 O   0  0  0  0  0  2           0  0  0
   -2.5363   -1.2702    0.7824 O   0  0  0  0  0  2           0  0  0
  -10.5251    1.6317    0.2357 N   0  0  0  0  0  3           0  0  0
    0.0000    0.0000    0.0000 N   0  0  2  0  0  3           0  0  0
   -4.0930    1.0843    0.4944 N   0  0  0  0  0  3           0  0  0
   -8.5339    2.9076    0.8325 C   0  0  0  0  0  4           0  0  0
    2.1549   -7.5091   -0.3552 C   0  0  0  0  0  4           0  0  0
   -6.9226    0.8623   -0.2193 C   0  0  0  0  0  4           0  0  0
    2.3865   -4.8217    0.3468 C   0  0  0  0  0  4           0  0  0
   -9.1432    1.7633    0.3029 C   0  0  0  0  0  4           0  0  0
   -6.3364    2.0120    0.3359 C   0  0  0  0  0  4           0  0  0
   -7.1427    3.0352    0.8501 C   0  0  0  0  0  4           0  0  0
    2.9824   -7.1479    0.7016 C   0  0  0  0  0  4           0  0  0
    1.4441   -6.5485   -1.0674 C   0  0  0  0  0  4           0  0  0
   -8.3228    0.7550   -0.2317 C   0  0  0  0  0  4           0  0  0
    3.0988   -5.8027    1.0495 C   0  0  0  0  0  4           0  0  0
    1.5591   -5.2015   -0.7166 C   0  0  0  0  0  4           0  0  0
   -4.8712    2.2249    0.3955 C   0  0  0  0  0  4           0  0  0
   -2.0831   -0.0537    1.3692 C   0  0  2  0  0  4           0  0  0
    1.8585   -2.5346    0.0729 C   0  0  0  0  0  4           0  0  0
   -6.7289   -1.2185   -1.3120 C   0  0  0  0  0  4           0  0  0
   -2.6812   -2.3200    1.7308 C   0  0  0  0  0  4           0  0  0
   -2.6439    1.1284    0.5603 C   0  0  1  0  0  4           0  0  0
   -0.5439    0.0000    1.3722 C   0  0  0  0  0  4           0  0  0
    1.4647   -0.0000   -0.0000 C   0  0  0  0  0  4           0  0  0
   -0.5040    1.1494   -0.7685 C   0  0  0  0  0  4           0  0  0
    2.1824   -1.1752    0.6785 C   0  0  0  0  0  4           0  0  0
   -2.0320    1.1569   -0.8412 C   0  0  0  0  0  4           0  0  0
  1 10  1  0     0  0
  2 11  1  0     0  0
  3 13  1  0     0  0
  3 24  1  0     0  0
  4 12  1  0     0  0
  4 25  1  0     0  0
  5 22  2  0     0  0
  6 23  1  0     0  0
  6 26  1  0     0  0
  7 14  1  0     0  0
  8 28  1  0     0  0
  8 29  1  0     0  0
  8 30  1  0     0  0
  9 22  1  0     0  0
  9 27  1  0     0  0
 10 14  1  0     0  0
 10 16  2  0     0  0
 11 17  2  0     0  0
 11 18  1  0     0  0
 12 15  2  0     0  0
 12 19  1  0     0  0
 13 20  2  0     0  0
 13 21  1  0     0  0
 14 19  2  0     0  0
 15 16  1  0     0  0
 15 22  1  0     0  0
 17 20  1  0     0  0
 18 21  2  0     0  0
 23 27  1  0     0  0
 23 28  1  0     0  0
 24 31  1  0     0  0
 27 32  1  0     0  0
 29 31  1  0     0  0
 30 32  1  0     0  0
M  END
> <standard_type>
pIC50

> <# Confs.>
25

> <canonical_smiles>
O=C(C1=C(OC)C=C(N)C(Cl)=C1)N[C@H]2[C@H](CN(CC2)CCCOC3=CC=C(F)C=C3)OC

> <standard_relation>
=

> <Publication_ID>
nan

> <predicted_activity_value>
nan

> <actual_activity_value>
2.154901959985743

> <Compound>
Cisapride

> <standard_units>
uM

> hash
13737733649442168542

$$$$
9
XXILIB    08252103503D 0   0.00000     0.00000

 32 34  0     1  0            999 V2000
   -9.3341    4.0045   -1.4066 Cl  0  0  0  0  0  1           0  0  0
    2.0413   -8.8011   -0.6938 F   0  0  0  0  0  1           0  0  0
    2.5803   -3.5417    0.7830 O   0  0  0  0  0  2           0  0  0
   -6.1945    0.0147    1.6000 O   0  0  0  0  0  2           0  0  0
   -4.4260    3.3696    0.3541 O   0  0  0  0  0  2           0  0  0
   -2.5363   -1.2702    0.7824 O   0  0  0  0  0  2           0  0  0
  -10.5083    1.5801    0.0056 N   0  0  0  0  0  3           0  0  0
    0.0000    0.0000    0.0000 N   0  0  2  0  0  3           0  0  0
   -4.0930    1.0843    0.4944 N   0  0  0  0  0  3           0  0  0
   -8.4665    2.8161   -0.4970 C   0  0  0  0  0  4           0  0  0
    2.1549   -7.5091   -0.3552 C   0  0  0  0  0  4           0  0  0
   -6.9797    0.9270    0.9543 C   0  0  0  0  0  4           0  0  0
    2.3865   -4.8217    0.3468 C   0  0  0  0  0  4           0  0  0
   -9.1348    1.7551    0.1264 C   0  0  0  0  0  4           0  0  0
   -6.3364    2.0120    0.3359 C   0  0  0  0  0  4           0  0  0
   -7.0792    2.9468   -0.3963 C   0  0  0  0  0  4           0  0  0
    2.9824   -7.1479    0.7016 C   0  0  0  0  0  4           0  0  0
    1.4441   -6.5485   -1.0674 C   0  0  0  0  0  4           0  0  0
   -8.3744    0.8109    0.8376 C   0  0  0  0  0  4           0  0  0
    3.0988   -5.8027    1.0495 C   0  0  0  0  0  4           0  0  0
    1.5591   -5.2015   -0.7166 C   0  0  0  0  0  4           0  0  0
   -4.8712    2.2249    0.3955 C   0  0  0  0  0  4           0  0  0
   -2.0831   -0.0537    1.3692 C   0  0  2  0  0  4           0  0  0
    1.8585   -2.5346    0.0729 C   0  0  0  0  0  4           0  0  0
   -6.8943   -1.0667    2.2109 C   0  0  0  0  0  4           0  0  0
   -2.6812   -2.3200    1.7308 C   0  0  0  0  0  4           0  0  0
   -2.6439    1.1284    0.5603 C   0  0  1  0  0  4           0  0  0
   -0.5439    0.0000    1.3722 C   0  0  0  0  0  4           0  0  0
    1.4647   -0.0000   -0.0000 C   0  0  0  0  0  4           0  0  0
   -0.5040    1.1494   -0.7685 C   0  0  0  0  0  4           0  0  0
    2.1824   -1.1752    0.6785 C   0  0  0  0  0  4           0  0  0
   -2.0320    1.1569   -0.8412 C   0  0  0  0  0  4           0  0  0
  1 10  1  0     0  0
  2 11  1  0     0  0
  3 13  1  0     0  0
  3 24  1  0     0  0
  4 12  1  0     0  0
  4 25  1  0     0  0
  5 22  2  0     0  0
  6 23  1  0     0  0
  6 26  1  0     0  0
  7 14  1  0     0  0
  8 28  1  0     0  0
  8 29  1  0     0  0
  8 30  1  0     0  0
  9 22  1  0     0  0
  9 27  1  0     0  0
 10 14  1  0     0  0
 10 16  2  0     0  0
 11 17  2  0     0  0
 11 18  1  0     0  0
 12 15  2  0     0  0
 12 19  1  0     0  0
 13 20  2  0     0  0
 13 21  1  0     0  0
 14 19  2  0     0  0
 15 16  1  0     0  0
 15 22  1  0     0  0
 17 20  1  0     0  0
 18 21  2  0     0  0
 23 27  1  0     0  0
 23 28  1  0     0  0
 24 31  1  0     0  0
 27 32  1  0     0  0
 29 31  1  0     0  0
 30 32  1  0     0  0
M  END
> <standard_type>
pIC50

> <# Confs.>
25

> <canonical_smiles>
O=C(C1=C(OC)C=C(N)C(Cl)=C1)N[C@H]2[C@H](CN(CC2)CCCOC3=CC=C(F)C=C3)OC

> <standard_relation>
=

> <Publication_ID>
nan

> <predicted_activity_value>
nan

> <actual_activity_value>
2.154901959985743

> <Compound>
Cisapride

> <standard_units>
uM

> hash
13737733649442168542

$$$$
9
XXILIB    08252103503D 0   0.00000     0.00000

 32 34  0     1  0            999 V2000
   -9.4986    1.4899    3.7071 Cl  0  0  0  0  0  1           0  0  0
    2.0413   -8.8011   -0.6938 F   0  0  0  0  0  1           0  0  0
    2.5803   -3.5417    0.7830 O   0  0  0  0  0  2           0  0  0
   -6.1166    1.4829   -1.1278 O   0  0  0  0  0  2           0  0  0
   -4.4877    2.3311    2.4031 O   0  0  0  0  0  2           0  0  0
   -2.5363   -1.2702    0.7824 O   0  0  0  0  0  2           0  0  0
  -10.5414    1.2310    0.8617 N   0  0  0  0  0  3           0  0  0
    0.0000    0.0000    0.0000 N   0  0  2  0  0  3           0  0  0
   -4.0930    1.0843    0.4944 N   0  0  0  0  0  3           0  0  0
   -8.5548    1.4625    2.2578 C   0  0  0  0  0  4           0  0  0
    2.1549   -7.5091   -0.3552 C   0  0  0  0  0  4           0  0  0
   -6.9479    1.4356   -0.0451 C   0  0  0  0  0  4           0  0  0
    2.3865   -4.8217    0.3468 C   0  0  0  0  0  4           0  0  0
   -9.1614    1.3141    1.0043 C   0  0  0  0  0  4           0  0  0
   -6.3632    1.5632    1.2259 C   0  0  0  0  0  4           0  0  0
   -7.1679    1.5870    2.3720 C   0  0  0  0  0  4           0  0  0
    2.9824   -7.1479    0.7016 C   0  0  0  0  0  4           0  0  0
    1.4441   -6.5485   -1.0674 C   0  0  0  0  0  4           0  0  0
   -8.3440    1.3162   -0.1391 C   0  0  0  0  0  4           0  0  0
    3.0988   -5.8027    1.0495 C   0  0  0  0  0  4           0  0  0
    1.5591   -5.2015   -0.7166 C   0  0  0  0  0  4           0  0  0
   -4.9024    1.6981    1.4348 C   0  0  0  0  0  4           0  0  0
   -2.0831   -0.0537    1.3692 C   0  0  2  0  0  4           0  0  0
    1.8585   -2.5346    0.0729 C   0  0  0  0  0  4           0  0  0
   -6.7578    1.3489   -2.3940 C   0  0  0  0  0  4           0  0  0
   -2.6812   -2.3200    1.7308 C   0  0  0  0  0  4           0  0  0
   -2.6439    1.1284    0.5603 C   0  0  1  0  0  4           0  0  0
   -0.5439    0.0000    1.3722 C   0  0  0  0  0  4           0  0  0
    1.4647   -0.0000   -0.0000 C   0  0  0  0  0  4           0  0  0
   -0.5040    1.1494   -0.7685 C   0  0  0  0  0  4           0  0  0
    2.1824   -1.1752    0.6785 C   0  0  0  0  0  4           0  0  0
   -2.0320    1.1569   -0.8412 C   0  0  0  0  0  4           0  0  0
  1 10  1  0     0  0
  2 11  1  0     0  0
  3 13  1  0     0  0
  3 24  1  0     0  0
  4 12  1  0     0  0
  4 25  1  0     0  0
  5 22  2  0     0  0
  6 23  1  0     0  0
  6 26  1  0     0  0
  7 14  1  0     0  0
  8 28  1  0     0  0
  8 29  1  0     0  0
  8 30  1  0     0  0
  9 22  1  0     0  0
  9 27  1  0     0  0
 10 14  1  0     0  0
 10 16  2  0     0  0
 11 17  2  0     0  0
 11 18  1  0     0  0
 12 15  2  0     0  0
 12 19  1  0     0  0
 13 20  2  0     0  0
 13 21  1  0     0  0
 14 19  2  0     0  0
 15 16  1  0     0  0
 15 22  1  0     0  0
 17 20  1  0     0  0
 18 21  2  0     0  0
 23 27  1  0     0  0
 23 28  1  0     0  0
 24 31  1  0     0  0
 27 32  1  0     0  0
 29 31  1  0     0  0
 30 32  1  0     0  0
M  END
> <standard_type>
pIC50

> <# Confs.>
25

> <canonical_smiles>
O=C(C1=C(OC)C=C(N)C(Cl)=C1)N[C@H]2[C@H](CN(CC2)CCCOC3=CC=C(F)C=C3)OC

> <standard_relation>
=

> <Publication_ID>
nan

> <predicted_activity_value>
nan

> <actual_activity_value>
2.154901959985743

> <Compound>
Cisapride

> <standard_units>
uM

> hash
13737733649442168542

$$$$
9
XXILIB    08252103503D 0   0.00000     0.00000

 32 34  0     1  0            999 V2000
   -5.3116   -7.5609    3.4723 Cl  0  0  0  0  0  1           0  0  0
    2.0413    5.0014   -7.2751 F   0  0  0  0  0  1           0  0  0
    2.5803    1.0927   -3.4587 O   0  0  0  0  0  2           0  0  0
   -0.7490   -4.2927    1.6513 O   0  0  0  0  0  2           0  0  0
   -4.4308   -3.3509    0.4693 O   0  0  0  0  0  2           0  0  0
   -2.5347   -0.0005    2.7587 O   0  0  0  0  0  2           0  0  0
   -2.3867   -8.2600    3.9272 N   0  0  0  0  0  3           0  0  0
   -0.0000    0.0000    0.0000 N   0  0  2  0  0  3           0  0  0
   -2.4950   -2.3709    1.2728 N   0  0  0  0  0  3           0  0  0
   -3.9374   -6.6333    2.9792 C   0  0  0  0  0  4           0  0  0
    2.1549    4.0621   -6.3255 C   0  0  0  0  0  4           0  0  0
   -1.7627   -5.0701    2.1348 C   0  0  0  0  0  4           0  0  0
    2.3865    2.1105   -4.3492 C   0  0  0  0  0  4           0  0  0
   -2.6361   -7.0591    3.2734 C   0  0  0  0  0  4           0  0  0
   -3.0786   -4.6558    1.8700 C   0  0  0  0  0  4           0  0  0
   -4.1611   -5.4428    2.2830 C   0  0  0  0  0  4           0  0  0
    2.9824    2.9663   -6.5411 C   0  0  0  0  0  4           0  0  0
    1.4441    4.1986   -5.1375 C   0  0  0  0  0  4           0  0  0
   -1.5586   -6.2720    2.8319 C   0  0  0  0  0  4           0  0  0
    3.0988    1.9925   -5.5500 C   0  0  0  0  0  4           0  0  0
    1.5591    3.2214   -4.1463 C   0  0  0  0  0  4           0  0  0
   -3.4027   -3.4076    1.1403 C   0  0  0  0  0  4           0  0  0
   -2.0411    0.0607    1.4236 C   0  0  2  0  0  4           0  0  0
    1.8585    1.2042   -2.2315 C   0  0  0  0  0  4           0  0  0
    0.5669   -4.7553    1.9464 C   0  0  0  0  0  4           0  0  0
   -3.7241    0.7571    2.9427 C   0  0  0  0  0  4           0  0  0
   -2.6712   -1.0874    0.6186 C   0  0  1  0  0  4           0  0  0
   -0.5041    0.0000    1.3828 C   0  0  0  0  0  4           0  0  0
    1.4647    0.0000    0.0000 C   0  0  0  0  0  4           0  0  0
   -0.5426   -1.1344   -0.7643 C   0  0  0  0  0  4           0  0  0
    2.1824    0.0000   -1.3570 C   0  0  0  0  0  4           0  0  0
   -2.0752   -1.1134   -0.7912 C   0  0  0  0  0  4           0  0  0
  1 10  1  0     0  0
  2 11  1  0     0  0
  3 13  1  0     0  0
  3 24  1  0     0  0
  4 12  1  0     0  0
  4 25  1  0     0  0
  5 22  2  0     0  0
  6 23  1  0     0  0
  6 26  1  0     0  0
  7 14  1  0     0  0
  8 28  1  0     0  0
  8 29  1  0     0  0
  8 30  1  0     0  0
  9 22  1  0     0  0
  9 27  1  0     0  0
 10 14  1  0     0  0
 10 16  2  0     0  0
 11 17  2  0     0  0
 11 18  1  0     0  0
 12 15  2  0     0  0
 12 19  1  0     0  0
 13 20  2  0     0  0
 13 21  1  0     0  0
 14 19  2  0     0  0
 15 16  1  0     0  0
 15 22  1  0     0  0
 17 20  1  0     0  0
 18 21  2  0     0  0
 23 27  1  0     0  0
 23 28  1  0     0  0
 24 31  1  0     0  0
 27 32  1  0     0  0
 29 31  1  0     0  0
 30 32  1  0     0  0
M  END
> <standard_type>
pIC50

> <# Confs.>
25

> <canonical_smiles>
O=C(C1=C(OC)C=C(N)C(Cl)=C1)N[C@H]2[C@H](CN(CC2)CCCOC3=CC=C(F)C=C3)OC

> <standard_relation>
=

> <Publication_ID>
nan

> <predicted_activity_value>
nan

> <actual_activity_value>
2.154901959985743

> <Compound>
Cisapride

> <standard_units>
uM

> hash
13737733649442168542

$$$$
9
XXILIB    08252103503D 0   0.00000     0.00000

 32 34  0     1  0            999 V2000
   -9.5149    3.1411    2.9602 Cl  0  0  0  0  0  1           0  0  0
    2.1572   -8.7652   -0.8507 F   0  0  0  0  0  1           0  0  0
    2.5803   -3.5417    0.7830 O   0  0  0  0  0  2           0  0  0
   -6.0903    0.6571   -1.1529 O   0  0  0  0  0  2           0  0  0
   -4.4715    3.1248    1.5172 O   0  0  0  0  0  2           0  0  0
   -2.5363   -1.2702    0.7824 O   0  0  0  0  0  2           0  0  0
  -10.5383    1.5152    0.6022 N   0  0  0  0  0  3           0  0  0
    0.0000    0.0000    0.0000 N   0  0  2  0  0  3           0  0  0
   -4.0930    1.0843    0.4944 N   0  0  0  0  0  3           0  0  0
   -8.5589    2.3759    1.7383 C   0  0  0  0  0  4           0  0  0
    2.2333   -7.4846   -0.4619 C   0  0  0  0  0  4           0  0  0
   -6.9325    1.1724   -0.2090 C   0  0  0  0  0  4           0  0  0
    2.3865   -4.8217    0.3468 C   0  0  0  0  0  4           0  0  0
   -9.1579    1.6327    0.7136 C   0  0  0  0  0  4           0  0  0
   -6.3561    1.9068    0.8408 C   0  0  0  0  0  4           0  0  0
   -7.1704    2.5148    1.8046 C   0  0  0  0  0  4           0  0  0
    3.4025   -7.0151    0.1252 C   0  0  0  0  0  4           0  0  0
    1.1416   -6.6439   -0.6531 C   0  0  0  0  0  4           0  0  0
   -8.3304    1.0481   -0.2605 C   0  0  0  0  0  4           0  0  0
    3.4778   -5.6819    0.5267 C   0  0  0  0  0  4           0  0  0
    1.2169   -5.3093   -0.2482 C   0  0  0  0  0  4           0  0  0
   -4.8942    2.1008    0.9855 C   0  0  0  0  0  4           0  0  0
   -2.0831   -0.0537    1.3692 C   0  0  2  0  0  4           0  0  0
    1.8585   -2.5346    0.0729 C   0  0  0  0  0  4           0  0  0
   -6.7233   -0.0794   -2.1966 C   0  0  0  0  0  4           0  0  0
   -2.6812   -2.3200    1.7308 C   0  0  0  0  0  4           0  0  0
   -2.6439    1.1284    0.5603 C   0  0  1  0  0  4           0  0  0
   -0.5439    0.0000    1.3722 C   0  0  0  0  0  4           0  0  0
    1.4647   -0.0000   -0.0000 C   0  0  0  0  0  4           0  0  0
   -0.5040    1.1494   -0.7685 C   0  0  0  0  0  4           0  0  0
    2.1824   -1.1752    0.6785 C   0  0  0  0  0  4           0  0  0
   -2.0320    1.1569   -0.8412 C   0  0  0  0  0  4           0  0  0
  1 10  1  0     0  0
  2 11  1  0     0  0
  3 13  1  0     0  0
  3 24  1  0     0  0
  4 12  1  0     0  0
  4 25  1  0     0  0
  5 22  2  0     0  0
  6 23  1  0     0  0
  6 26  1  0     0  0
  7 14  1  0     0  0
  8 28  1  0     0  0
  8 29  1  0     0  0
  8 30  1  0     0  0
  9 22  1  0     0  0
  9 27  1  0     0  0
 10 14  1  0     0  0
 10 16  2  0     0  0
 11 17  2  0     0  0
 11 18  1  0     0  0
 12 15  2  0     0  0
 12 19  1  0     0  0
 13 20  2  0     0  0
 13 21  1  0     0  0
 14 19  2  0     0  0
 15 16  1  0     0  0
 15 22  1  0     0  0
 17 20  1  0     0  0
 18 21  2  0     0  0
 23 27  1  0     0  0
 23 28  1  0     0  0
 24 31  1  0     0  0
 27 32  1  0     0  0
 29 31  1  0     0  0
 30 32  1  0     0  0
M  END
> <standard_type>
pIC50

> <# Confs.>
25

> <canonical_smiles>
O=C(C1=C(OC)C=C(N)C(Cl)=C1)N[C@H]2[C@H](CN(CC2)CCCOC3=CC=C(F)C=C3)OC

> <standard_relation>
=

> <Publication_ID>
nan

> <predicted_activity_value>
nan

> <actual_activity_value>
2.154901959985743

> <Compound>
Cisapride

> <standard_units>
uM

> hash
13737733649442168542

$$$$
9
XXILIB    08252103503D 0   0.00000     0.00000

 32 34  0     1  0            999 V2000
   -9.5149    3.1411    2.9602 Cl  0  0  0  0  0  1           0  0  0
    0.3387   -8.5218    1.3366 F   0  0  0  0  0  1           0  0  0
    2.5803   -3.5417    0.7830 O   0  0  0  0  0  2           0  0  0
   -6.0903    0.6571   -1.1529 O   0  0  0  0  0  2           0  0  0
   -4.4715    3.1248    1.5172 O   0  0  0  0  0  2           0  0  0
   -2.5363   -1.2702    0.7824 O   0  0  0  0  0  2           0  0  0
  -10.5383    1.5152    0.6022 N   0  0  0  0  0  3           0  0  0
    0.0000    0.0000    0.0000 N   0  0  2  0  0  3           0  0  0
   -4.0930    1.0843    0.4944 N   0  0  0  0  0  3           0  0  0
   -8.5589    2.3759    1.7383 C   0  0  0  0  0  4           0  0  0
    0.8731   -7.3031    1.1751 C   0  0  0  0  0  4           0  0  0
   -6.9325    1.1724   -0.2090 C   0  0  0  0  0  4           0  0  0
    1.9803   -4.7678    0.8363 C   0  0  0  0  0  4           0  0  0
   -9.1579    1.6327    0.7136 C   0  0  0  0  0  4           0  0  0
   -6.3561    1.9068    0.8408 C   0  0  0  0  0  4           0  0  0
   -7.1704    2.5148    1.8046 C   0  0  0  0  0  4           0  0  0
    1.7158   -6.7893    2.1538 C   0  0  0  0  0  4           0  0  0
    0.5775   -6.5711    0.0297 C   0  0  0  0  0  4           0  0  0
   -8.3304    1.0481   -0.2605 C   0  0  0  0  0  4           0  0  0
    2.2706   -5.5218    1.9810 C   0  0  0  0  0  4           0  0  0
    1.1315   -5.3004   -0.1414 C   0  0  0  0  0  4           0  0  0
   -4.8942    2.1008    0.9855 C   0  0  0  0  0  4           0  0  0
   -2.0831   -0.0537    1.3692 C   0  0  2  0  0  4           0  0  0
    1.8585   -2.5346    0.0729 C   0  0  0  0  0  4           0  0  0
   -6.7233   -0.0794   -2.1966 C   0  0  0  0  0  4           0  0  0
   -2.6812   -2.3200    1.7308 C   0  0  0  0  0  4           0  0  0
   -2.6439    1.1284    0.5603 C   0  0  1  0  0  4           0  0  0
   -0.5439    0.0000    1.3722 C   0  0  0  0  0  4           0  0  0
    1.4647    0.0000   -0.0000 C   0  0  0  0  0  4           0  0  0
   -0.5040    1.1494   -0.7685 C   0  0  0  0  0  4           0  0  0
    2.1824   -1.1752    0.6785 C   0  0  0  0  0  4           0  0  0
   -2.0320    1.1569   -0.8412 C   0  0  0  0  0  4           0  0  0
  1 10  1  0     0  0
  2 11  1  0     0  0
  3 13  1  0     0  0
  3 24  1  0     0  0
  4 12  1  0     0  0
  4 25  1  0     0  0
  5 22  2  0     0  0
  6 23  1  0     0  0
  6 26  1  0     0  0
  7 14  1  0     0  0
  8 28  1  0     0  0
  8 29  1  0     0  0
  8 30  1  0     0  0
  9 22  1  0     0  0
  9 27  1  0     0  0
 10 14  1  0     0  0
 10 16  2  0     0  0
 11 17  2  0     0  0
 11 18  1  0     0  0
 12 15  2  0     0  0
 12 19  1  0     0  0
 13 20  2  0     0  0
 13 21  1  0     0  0
 14 19  2  0     0  0
 15 16  1  0     0  0
 15 22  1  0     0  0
 17 20  1  0     0  0
 18 21  2  0     0  0
 23 27  1  0     0  0
 23 28  1  0     0  0
 24 31  1  0     0  0
 27 32  1  0     0  0
 29 31  1  0     0  0
 30 32  1  0     0  0
M  END
> <standard_type>
pIC50

> <# Confs.>
25

> <canonical_smiles>
O=C(C1=C(OC)C=C(N)C(Cl)=C1)N[C@H]2[C@H](CN(CC2)CCCOC3=CC=C(F)C=C3)OC

> <standard_relation>
=

> <Publication_ID>
nan

> <predicted_activity_value>
nan

> <actual_activity_value>
2.154901959985743

> <Compound>
Cisapride

> <standard_units>
uM

> hash
13737733649442168542

$$$$
9
XXILIB    08252103503D 0   0.00000     0.00000

 32 34  0     1  0            999 V2000
   -9.4801    4.1985    1.4887 Cl  0  0  0  0  0  1           0  0  0
    4.2685   -8.0087   -1.9241 F   0  0  0  0  0  1           0  0  0
    2.5803   -3.5417    0.7830 O   0  0  0  0  0  2           0  0  0
   -6.0859   -0.0711   -0.7620 O   0  0  0  0  0  2           0  0  0
   -4.4260    3.3696    0.3541 O   0  0  0  0  0  2           0  0  0
   -2.5363   -1.2702    0.7824 O   0  0  0  0  0  2           0  0  0
  -10.5251    1.6317    0.2357 N   0  0  0  0  0  3           0  0  0
    0.0000    0.0000    0.0000 N   0  0  2  0  0  3           0  0  0
   -4.0930    1.0843    0.4944 N   0  0  0  0  0  3           0  0  0
   -8.5339    2.9076    0.8325 C   0  0  0  0  0  4           0  0  0
    3.8335   -6.9156   -1.2816 C   0  0  0  0  0  4           0  0  0
   -6.9226    0.8623   -0.2193 C   0  0  0  0  0  4           0  0  0
    2.9243   -4.6437    0.0526 C   0  0  0  0  0  4           0  0  0
   -9.1432    1.7633    0.3029 C   0  0  0  0  0  4           0  0  0
   -6.3364    2.0120    0.3359 C   0  0  0  0  0  4           0  0  0
   -7.1427    3.0352    0.8501 C   0  0  0  0  0  4           0  0  0
    4.5597   -6.4188   -0.2055 C   0  0  0  0  0  4           0  0  0
    2.6625   -6.2936   -1.7022 C   0  0  0  0  0  4           0  0  0
   -8.3228    0.7550   -0.2317 C   0  0  0  0  0  4           0  0  0
    4.1044   -5.2807    0.4589 C   0  0  0  0  0  4           0  0  0
    2.2056   -5.1550   -1.0345 C   0  0  0  0  0  4           0  0  0
   -4.8712    2.2249    0.3955 C   0  0  0  0  0  4           0  0  0
   -2.0831   -0.0537    1.3692 C   0  0  2  0  0  4           0  0  0
    1.8585   -2.5346    0.0729 C   0  0  0  0  0  4           0  0  0
   -6.7289   -1.2185   -1.3120 C   0  0  0  0  0  4           0  0  0
   -2.6812   -2.3200    1.7308 C   0  0  0  0  0  4           0  0  0
   -2.6439    1.1284    0.5603 C   0  0  1  0  0  4           0  0  0
   -0.5439    0.0000    1.3722 C   0  0  0  0  0  4           0  0  0
    1.4647   -0.0000    0.0000 C   0  0  0  0  0  4           0  0  0
   -0.5040    1.1494   -0.7685 C   0  0  0  0  0  4           0  0  0
    2.1824   -1.1752    0.6785 C   0  0  0  0  0  4           0  0  0
   -2.0320    1.1569   -0.8412 C   0  0  0  0  0  4           0  0  0
  1 10  1  0     0  0
  2 11  1  0     0  0
  3 13  1  0     0  0
  3 24  1  0     0  0
  4 12  1  0     0  0
  4 25  1  0     0  0
  5 22  2  0     0  0
  6 23  1  0     0  0
  6 26  1  0     0  0
  7 14  1  0     0  0
  8 28  1  0     0  0
  8 29  1  0     0  0
  8 30  1  0     0  0
  9 22  1  0     0  0
  9 27  1  0     0  0
 10 14  1  0     0  0
 10 16  2  0     0  0
 11 17  2  0     0  0
 11 18  1  0     0  0
 12 15  2  0     0  0
 12 19  1  0     0  0
 13 20  2  0     0  0
 13 21  1  0     0  0
 14 19  2  0     0  0
 15 16  1  0     0  0
 15 22  1  0     0  0
 17 20  1  0     0  0
 18 21  2  0     0  0
 23 27  1  0     0  0
 23 28  1  0     0  0
 24 31  1  0     0  0
 27 32  1  0     0  0
 29 31  1  0     0  0
 30 32  1  0     0  0
M  END
> <standard_type>
pIC50

> <# Confs.>
25

> <canonical_smiles>
O=C(C1=C(OC)C=C(N)C(Cl)=C1)N[C@H]2[C@H](CN(CC2)CCCOC3=CC=C(F)C=C3)OC

> <standard_relation>
=

> <Publication_ID>
nan

> <predicted_activity_value>
nan

> <actual_activity_value>
2.154901959985743

> <Compound>
Cisapride

> <standard_units>
uM

> hash
13737733649442168542

$$$$
9
XXILIB    08252103503D 0   0.00000     0.00000

 32 34  0     1  0            999 V2000
   -9.3341    4.0045   -1.4066 Cl  0  0  0  0  0  1           0  0  0
    4.2685   -8.0087   -1.9241 F   0  0  0  0  0  1           0  0  0
    2.5803   -3.5417    0.7830 O   0  0  0  0  0  2           0  0  0
   -6.1945    0.0147    1.6000 O   0  0  0  0  0  2           0  0  0
   -4.4260    3.3696    0.3541 O   0  0  0  0  0  2           0  0  0
   -2.5363   -1.2702    0.7824 O   0  0  0  0  0  2           0  0  0
  -10.5083    1.5801    0.0056 N   0  0  0  0  0  3           0  0  0
    0.0000    0.0000    0.0000 N   0  0  2  0  0  3           0  0  0
   -4.0930    1.0843    0.4944 N   0  0  0  0  0  3           0  0  0
   -8.4665    2.8161   -0.4970 C   0  0  0  0  0  4           0  0  0
    3.8335   -6.9156   -1.2816 C   0  0  0  0  0  4           0  0  0
   -6.9797    0.9270    0.9543 C   0  0  0  0  0  4           0  0  0
    2.9243   -4.6437    0.0526 C   0  0  0  0  0  4           0  0  0
   -9.1348    1.7551    0.1264 C   0  0  0  0  0  4           0  0  0
   -6.3364    2.0120    0.3359 C   0  0  0  0  0  4           0  0  0
   -7.0792    2.9468   -0.3963 C   0  0  0  0  0  4           0  0  0
    4.5597   -6.4188   -0.2055 C   0  0  0  0  0  4           0  0  0
    2.6625   -6.2936   -1.7022 C   0  0  0  0  0  4           0  0  0
   -8.3744    0.8109    0.8376 C   0  0  0  0  0  4           0  0  0
    4.1044   -5.2807    0.4589 C   0  0  0  0  0  4           0  0  0
    2.2056   -5.1550   -1.0345 C   0  0  0  0  0  4           0  0  0
   -4.8712    2.2249    0.3955 C   0  0  0  0  0  4           0  0  0
   -2.0831   -0.0537    1.3692 C   0  0  2  0  0  4           0  0  0
    1.8585   -2.5346    0.0729 C   0  0  0  0  0  4           0  0  0
   -6.8943   -1.0667    2.2109 C   0  0  0  0  0  4           0  0  0
   -2.6812   -2.3200    1.7308 C   0  0  0  0  0  4           0  0  0
   -2.6439    1.1284    0.5603 C   0  0  1  0  0  4           0  0  0
   -0.5439    0.0000    1.3722 C   0  0  0  0  0  4           0  0  0
    1.4647   -0.0000    0.0000 C   0  0  0  0  0  4           0  0  0
   -0.5040    1.1494   -0.7685 C   0  0  0  0  0  4           0  0  0
    2.1824   -1.1752    0.6785 C   0  0  0  0  0  4           0  0  0
   -2.0320    1.1569   -0.8412 C   0  0  0  0  0  4           0  0  0
  1 10  1  0     0  0
  2 11  1  0     0  0
  3 13  1  0     0  0
  3 24  1  0     0  0
  4 12  1  0     0  0
  4 25  1  0     0  0
  5 22  2  0     0  0
  6 23  1  0     0  0
  6 26  1  0     0  0
  7 14  1  0     0  0
  8 28  1  0     0  0
  8 29  1  0     0  0
  8 30  1  0     0  0
  9 22  1  0     0  0
  9 27  1  0     0  0
 10 14  1  0     0  0
 10 16  2  0     0  0
 11 17  2  0     0  0
 11 18  1  0     0  0
 12 15  2  0     0  0
 12 19  1  0     0  0
 13 20  2  0     0  0
 13 21  1  0     0  0
 14 19  2  0     0  0
 15 16  1  0     0  0
 15 22  1  0     0  0
 17 20  1  0     0  0
 18 21  2  0     0  0
 23 27  1  0     0  0
 23 28  1  0     0  0
 24 31  1  0     0  0
 27 32  1  0     0  0
 29 31  1  0     0  0
 30 32  1  0     0  0
M  END
> <standard_type>
pIC50

> <# Confs.>
25

> <canonical_smiles>
O=C(C1=C(OC)C=C(N)C(Cl)=C1)N[C@H]2[C@H](CN(CC2)CCCOC3=CC=C(F)C=C3)OC

> <standard_relation>
=

> <Publication_ID>
nan

> <predicted_activity_value>
nan

> <actual_activity_value>
2.154901959985743

> <Compound>
Cisapride

> <standard_units>
uM

> hash
13737733649442168542

$$$$
9
XXILIB    08252103503D 0   0.00000     0.00000

 32 34  0     1  0            999 V2000
   -9.4269    4.4219    0.3537 Cl  0  0  0  0  0  1           0  0  0
    0.3387   -8.5218    1.3366 F   0  0  0  0  0  1           0  0  0
    2.5803   -3.5417    0.7830 O   0  0  0  0  0  2           0  0  0
   -6.1502   -0.4502    0.9371 O   0  0  0  0  0  2           0  0  0
   -4.4715    3.1248    1.5172 O   0  0  0  0  0  2           0  0  0
   -2.5363   -1.2702    0.7824 O   0  0  0  0  0  2           0  0  0
  -10.5254    1.5858    0.3770 N   0  0  0  0  0  3           0  0  0
    0.0000    0.0000    0.0000 N   0  0  2  0  0  3           0  0  0
   -4.0930    1.0843    0.4944 N   0  0  0  0  0  3           0  0  0
   -8.5181    2.9619    0.5403 C   0  0  0  0  0  4           0  0  0
    0.8731   -7.3031    1.1751 C   0  0  0  0  0  4           0  0  0
   -6.9658    0.6412    0.8406 C   0  0  0  0  0  4           0  0  0
    1.9803   -4.7678    0.8363 C   0  0  0  0  0  4           0  0  0
   -9.1531    1.7138    0.5566 C   0  0  0  0  0  4           0  0  0
   -6.3561    1.9068    0.8408 C   0  0  0  0  0  4           0  0  0
   -7.1317    3.0619    0.6802 C   0  0  0  0  0  4           0  0  0
    1.7158   -6.7893    2.1538 C   0  0  0  0  0  4           0  0  0
    0.5775   -6.5711    0.0297 C   0  0  0  0  0  4           0  0  0
   -8.3603    0.5615    0.6942 C   0  0  0  0  0  4           0  0  0
    2.2706   -5.5218    1.9810 C   0  0  0  0  0  4           0  0  0
    1.1315   -5.3004   -0.1414 C   0  0  0  0  0  4           0  0  0
   -4.8942    2.1008    0.9855 C   0  0  0  0  0  4           0  0  0
   -2.0831   -0.0537    1.3692 C   0  0  2  0  0  4           0  0  0
    1.8585   -2.5346    0.0729 C   0  0  0  0  0  4           0  0  0
   -6.8165   -1.7105    0.9326 C   0  0  0  0  0  4           0  0  0
   -2.6812   -2.3200    1.7308 C   0  0  0  0  0  4           0  0  0
   -2.6439    1.1284    0.5603 C   0  0  1  0  0  4           0  0  0
   -0.5439    0.0000    1.3722 C   0  0  0  0  0  4           0  0  0
    1.4647    0.0000   -0.0000 C   0  0  0  0  0  4           0  0  0
   -0.5040    1.1494   -0.7685 C   0  0  0  0  0  4           0  0  0
    2.1824   -1.1752    0.6785 C   0  0  0  0  0  4           0  0  0
   -2.0320    1.1569   -0.8412 C   0  0  0  0  0  4           0  0  0
  1 10  1  0     0  0
  2 11  1  0     0  0
  3 13  1  0     0  0
  3 24  1  0     0  0
  4 12  1  0     0  0
  4 25  1  0     0  0
  5 22  2  0     0  0
  6 23  1  0     0  0
  6 26  1  0     0  0
  7 14  1  0     0  0
  8 28  1  0     0  0
  8 29  1  0     0  0
  8 30  1  0     0  0
  9 22  1  0     0  0
  9 27  1  0     0  0
 10 14  1  0     0  0
 10 16  2  0     0  0
 11 17  2  0     0  0
 11 18  1  0     0  0
 12 15  2  0     0  0
 12 19  1  0     0  0
 13 20  2  0     0  0
 13 21  1  0     0  0
 14 19  2  0     0  0
 15 16  1  0     0  0
 15 22  1  0     0  0
 17 20  1  0     0  0
 18 21  2  0     0  0
 23 27  1  0     0  0
 23 28  1  0     0  0
 24 31  1  0     0  0
 27 32  1  0     0  0
 29 31  1  0     0  0
 30 32  1  0     0  0
M  END
> <standard_type>
pIC50

> <# Confs.>
25

> <canonical_smiles>
O=C(C1=C(OC)C=C(N)C(Cl)=C1)N[C@H]2[C@H](CN(CC2)CCCOC3=CC=C(F)C=C3)OC

> <standard_relation>
=

> <Publication_ID>
nan

> <predicted_activity_value>
nan

> <actual_activity_value>
2.154901959985743

> <Compound>
Cisapride

> <standard_units>
uM

> hash
13737733649442168542

$$$$
9
XXILIB    08252103503D 0   0.00000     0.00000

 32 34  0     1  0            999 V2000
   -9.4269    4.4219    0.3537 Cl  0  0  0  0  0  1           0  0  0
    2.1572   -8.7652   -0.8507 F   0  0  0  0  0  1           0  0  0
    2.5803   -3.5417    0.7830 O   0  0  0  0  0  2           0  0  0
   -6.1502   -0.4502    0.9371 O   0  0  0  0  0  2           0  0  0
   -4.4715    3.1248    1.5172 O   0  0  0  0  0  2           0  0  0
   -2.5363   -1.2702    0.7824 O   0  0  0  0  0  2           0  0  0
  -10.5254    1.5858    0.3770 N   0  0  0  0  0  3           0  0  0
    0.0000    0.0000    0.0000 N   0  0  2  0  0  3           0  0  0
   -4.0930    1.0843    0.4944 N   0  0  0  0  0  3           0  0  0
   -8.5181    2.9619    0.5403 C   0  0  0  0  0  4           0  0  0
    2.2333   -7.4846   -0.4619 C   0  0  0  0  0  4           0  0  0
   -6.9658    0.6412    0.8406 C   0  0  0  0  0  4           0  0  0
    2.3865   -4.8217    0.3468 C   0  0  0  0  0  4           0  0  0
   -9.1531    1.7138    0.5566 C   0  0  0  0  0  4           0  0  0
   -6.3561    1.9068    0.8408 C   0  0  0  0  0  4           0  0  0
   -7.1317    3.0619    0.6802 C   0  0  0  0  0  4           0  0  0
    3.4025   -7.0151    0.1252 C   0  0  0  0  0  4           0  0  0
    1.1416   -6.6439   -0.6531 C   0  0  0  0  0  4           0  0  0
   -8.3603    0.5615    0.6942 C   0  0  0  0  0  4           0  0  0
    3.4778   -5.6819    0.5267 C   0  0  0  0  0  4           0  0  0
    1.2169   -5.3093   -0.2482 C   0  0  0  0  0  4           0  0  0
   -4.8942    2.1008    0.9855 C   0  0  0  0  0  4           0  0  0
   -2.0831   -0.0537    1.3692 C   0  0  2  0  0  4           0  0  0
    1.8585   -2.5346    0.0729 C   0  0  0  0  0  4           0  0  0
   -6.8165   -1.7105    0.9326 C   0  0  0  0  0  4           0  0  0
   -2.6812   -2.3200    1.7308 C   0  0  0  0  0  4           0  0  0
   -2.6439    1.1284    0.5603 C   0  0  1  0  0  4           0  0  0
   -0.5439    0.0000    1.3722 C   0  0  0  0  0  4           0  0  0
    1.4647   -0.0000   -0.0000 C   0  0  0  0  0  4           0  0  0
   -0.5040    1.1494   -0.7685 C   0  0  0  0  0  4           0  0  0
    2.1824   -1.1752    0.6785 C   0  0  0  0  0  4           0  0  0
   -2.0320    1.1569   -0.8412 C   0  0  0  0  0  4           0  0  0
  1 10  1  0     0  0
  2 11  1  0     0  0
  3 13  1  0     0  0
  3 24  1  0     0  0
  4 12  1  0     0  0
  4 25  1  0     0  0
  5 22  2  0     0  0
  6 23  1  0     0  0
  6 26  1  0     0  0
  7 14  1  0     0  0
  8 28  1  0     0  0
  8 29  1  0     0  0
  8 30  1  0     0  0
  9 22  1  0     0  0
  9 27  1  0     0  0
 10 14  1  0     0  0
 10 16  2  0     0  0
 11 17  2  0     0  0
 11 18  1  0     0  0
 12 15  2  0     0  0
 12 19  1  0     0  0
 13 20  2  0     0  0
 13 21  1  0     0  0
 14 19  2  0     0  0
 15 16  1  0     0  0
 15 22  1  0     0  0
 17 20  1  0     0  0
 18 21  2  0     0  0
 23 27  1  0     0  0
 23 28  1  0     0  0
 24 31  1  0     0  0
 27 32  1  0     0  0
 29 31  1  0     0  0
 30 32  1  0     0  0
M  END
> <standard_type>
pIC50

> <# Confs.>
25

> <canonical_smiles>
O=C(C1=C(OC)C=C(N)C(Cl)=C1)N[C@H]2[C@H](CN(CC2)CCCOC3=CC=C(F)C=C3)OC

> <standard_relation>
=

> <Publication_ID>
nan

> <predicted_activity_value>
nan

> <actual_activity_value>
2.154901959985743

> <Compound>
Cisapride

> <standard_units>
uM

> hash
13737733649442168542

$$$$
9
XXILIB    08252103503D 0   0.00000     0.00000

 32 34  0     1  0            999 V2000
   -5.3116   -7.5609    3.4723 Cl  0  0  0  0  0  1           0  0  0
    9.4709   -2.0437    0.3038 F   0  0  0  0  0  1           0  0  0
    4.1196   -1.1699   -0.5519 O   0  0  0  0  0  2           0  0  0
   -0.7490   -4.2927    1.6513 O   0  0  0  0  0  2           0  0  0
   -4.4308   -3.3509    0.4693 O   0  0  0  0  0  2           0  0  0
   -2.5347   -0.0005    2.7587 O   0  0  0  0  0  2           0  0  0
   -2.3867   -8.2600    3.9272 N   0  0  0  0  0  3           0  0  0
   -0.0000    0.0000    0.0000 N   0  0  2  0  0  3           0  0  0
   -2.4950   -2.3709    1.2728 N   0  0  0  0  0  3           0  0  0
   -3.9374   -6.6333    2.9792 C   0  0  0  0  0  4           0  0  0
    8.1708   -1.8048    0.0817 C   0  0  0  0  0  4           0  0  0
   -1.7627   -5.0701    2.1348 C   0  0  0  0  0  4           0  0  0
    5.4686   -1.3053   -0.3843 C   0  0  0  0  0  4           0  0  0
   -2.6361   -7.0591    3.2734 C   0  0  0  0  0  4           0  0  0
   -3.0786   -4.6558    1.8700 C   0  0  0  0  0  4           0  0  0
   -4.1611   -5.4428    2.2830 C   0  0  0  0  0  4           0  0  0
    7.2199   -2.7092    0.5400 C   0  0  0  0  0  4           0  0  0
    7.7921   -0.6546   -0.6030 C   0  0  0  0  0  4           0  0  0
   -1.5586   -6.2720    2.8319 C   0  0  0  0  0  4           0  0  0
    5.8685   -2.4560    0.3080 C   0  0  0  0  0  4           0  0  0
    6.4384   -0.4030   -0.8374 C   0  0  0  0  0  4           0  0  0
   -3.4027   -3.4076    1.1403 C   0  0  0  0  0  4           0  0  0
   -2.0411    0.0607    1.4236 C   0  0  2  0  0  4           0  0  0
    3.7022   -0.0000   -1.2564 C   0  0  0  0  0  4           0  0  0
    0.5669   -4.7553    1.9464 C   0  0  0  0  0  4           0  0  0
   -3.7241    0.7571    2.9427 C   0  0  0  0  0  4           0  0  0
   -2.6712   -1.0874    0.6186 C   0  0  1  0  0  4           0  0  0
   -0.5041    0.0000    1.3828 C   0  0  0  0  0  4           0  0  0
    1.4647    0.0000   -0.0000 C   0  0  0  0  0  4           0  0  0
   -0.5426   -1.1344   -0.7643 C   0  0  0  0  0  4           0  0  0
    2.1824    0.0000   -1.3570 C   0  0  0  0  0  4           0  0  0
   -2.0752   -1.1134   -0.7912 C   0  0  0  0  0  4           0  0  0
  1 10  1  0     0  0
  2 11  1  0     0  0
  3 13  1  0     0  0
  3 24  1  0     0  0
  4 12  1  0     0  0
  4 25  1  0     0  0
  5 22  2  0     0  0
  6 23  1  0     0  0
  6 26  1  0     0  0
  7 14  1  0     0  0
  8 28  1  0     0  0
  8 29  1  0     0  0
  8 30  1  0     0  0
  9 22  1  0     0  0
  9 27  1  0     0  0
 10 14  1  0     0  0
 10 16  2  0     0  0
 11 17  2  0     0  0
 11 18  1  0     0  0
 12 15  2  0     0  0
 12 19  1  0     0  0
 13 20  2  0     0  0
 13 21  1  0     0  0
 14 19  2  0     0  0
 15 16  1  0     0  0
 15 22  1  0     0  0
 17 20  1  0     0  0
 18 21  2  0     0  0
 23 27  1  0     0  0
 23 28  1  0     0  0
 24 31  1  0     0  0
 27 32  1  0     0  0
 29 31  1  0     0  0
 30 32  1  0     0  0
M  END
> <standard_type>
pIC50

> <# Confs.>
25

> <canonical_smiles>
O=C(C1=C(OC)C=C(N)C(Cl)=C1)N[C@H]2[C@H](CN(CC2)CCCOC3=CC=C(F)C=C3)OC

> <standard_relation>
=

> <Publication_ID>
nan

> <predicted_activity_value>
nan

> <actual_activity_value>
2.154901959985743

> <Compound>
Cisapride

> <standard_units>
uM

> hash
13737733649442168542

$$$$
9
XXILIB    08252103503D 0   0.00000     0.00000

 32 34  0     1  0            999 V2000
   -5.3116   -7.5609    3.4723 Cl  0  0  0  0  0  1           0  0  0
    2.0467    8.8004   -0.6982 F   0  0  0  0  0  1           0  0  0
    2.5803    3.5417    0.7830 O   0  0  0  0  0  2           0  0  0
   -0.7490   -4.2927    1.6513 O   0  0  0  0  0  2           0  0  0
   -4.4308   -3.3509    0.4693 O   0  0  0  0  0  2           0  0  0
   -2.5347   -0.0005    2.7587 O   0  0  0  0  0  2           0  0  0
   -2.3867   -8.2600    3.9272 N   0  0  0  0  0  3           0  0  0
   -0.0000    0.0000    0.0000 N   0  0  2  0  0  3           0  0  0
   -2.4950   -2.3709    1.2728 N   0  0  0  0  0  3           0  0  0
   -3.9374   -6.6333    2.9792 C   0  0  0  0  0  4           0  0  0
    2.1575    7.5087   -0.3573 C   0  0  0  0  0  4           0  0  0
   -1.7627   -5.0701    2.1348 C   0  0  0  0  0  4           0  0  0
    2.3865    4.8217    0.3468 C   0  0  0  0  0  4           0  0  0
   -2.6361   -7.0591    3.2734 C   0  0  0  0  0  4           0  0  0
   -3.0786   -4.6558    1.8700 C   0  0  0  0  0  4           0  0  0
   -4.1611   -5.4428    2.2830 C   0  0  0  0  0  4           0  0  0
    2.9876    7.1473    0.6973 C   0  0  0  0  0  4           0  0  0
    1.4389    6.5492   -1.0631 C   0  0  0  0  0  4           0  0  0
   -1.5586   -6.2720    2.8319 C   0  0  0  0  0  4           0  0  0
    3.0988    5.8027    1.0495 C   0  0  0  0  0  4           0  0  0
    1.5528    5.2023   -0.7114 C   0  0  0  0  0  4           0  0  0
   -3.4027   -3.4076    1.1403 C   0  0  0  0  0  4           0  0  0
   -2.0411    0.0607    1.4236 C   0  0  2  0  0  4           0  0  0
    1.8585    2.5346    0.0729 C   0  0  0  0  0  4           0  0  0
    0.5669   -4.7553    1.9464 C   0  0  0  0  0  4           0  0  0
   -3.7241    0.7571    2.9427 C   0  0  0  0  0  4           0  0  0
   -2.6712   -1.0874    0.6186 C   0  0  1  0  0  4           0  0  0
   -0.5041    0.0000    1.3828 C   0  0  0  0  0  4           0  0  0
    1.4647   -0.0000    0.0000 C   0  0  0  0  0  4           0  0  0
   -0.5426   -1.1344   -0.7643 C   0  0  0  0  0  4           0  0  0
    2.1824    1.1752    0.6785 C   0  0  0  0  0  4           0  0  0
   -2.0752   -1.1134   -0.7912 C   0  0  0  0  0  4           0  0  0
  1 10  1  0     0  0
  2 11  1  0     0  0
  3 13  1  0     0  0
  3 24  1  0     0  0
  4 12  1  0     0  0
  4 25  1  0     0  0
  5 22  2  0     0  0
  6 23  1  0     0  0
  6 26  1  0     0  0
  7 14  1  0     0  0
  8 28  1  0     0  0
  8 29  1  0     0  0
  8 30  1  0     0  0
  9 22  1  0     0  0
  9 27  1  0     0  0
 10 14  1  0     0  0
 10 16  2  0     0  0
 11 17  2  0     0  0
 11 18  1  0     0  0
 12 15  2  0     0  0
 12 19  1  0     0  0
 13 20  2  0     0  0
 13 21  1  0     0  0
 14 19  2  0     0  0
 15 16  1  0     0  0
 15 22  1  0     0  0
 17 20  1  0     0  0
 18 21  2  0     0  0
 23 27  1  0     0  0
 23 28  1  0     0  0
 24 31  1  0     0  0
 27 32  1  0     0  0
 29 31  1  0     0  0
 30 32  1  0     0  0
M  END
> <standard_type>
pIC50

> <# Confs.>
25

> <canonical_smiles>
O=C(C1=C(OC)C=C(N)C(Cl)=C1)N[C@H]2[C@H](CN(CC2)CCCOC3=CC=C(F)C=C3)OC

> <standard_relation>
=

> <Publication_ID>
nan

> <predicted_activity_value>
nan

> <actual_activity_value>
2.154901959985743

> <Compound>
Cisapride

> <standard_units>
uM

> hash
13737733649442168542

$$$$
9
XXILIB    08252103503D 0   0.00000     0.00000

 32 34  0     1  0            999 V2000
   -9.4986    1.4899    3.7071 Cl  0  0  0  0  0  1           0  0  0
    4.2685   -8.0087   -1.9241 F   0  0  0  0  0  1           0  0  0
    2.5803   -3.5417    0.7830 O   0  0  0  0  0  2           0  0  0
   -6.1166    1.4829   -1.1278 O   0  0  0  0  0  2           0  0  0
   -4.4877    2.3311    2.4031 O   0  0  0  0  0  2           0  0  0
   -2.5363   -1.2702    0.7824 O   0  0  0  0  0  2           0  0  0
  -10.5414    1.2310    0.8617 N   0  0  0  0  0  3           0  0  0
    0.0000    0.0000    0.0000 N   0  0  2  0  0  3           0  0  0
   -4.0930    1.0843    0.4944 N   0  0  0  0  0  3           0  0  0
   -8.5548    1.4625    2.2578 C   0  0  0  0  0  4           0  0  0
    3.8335   -6.9156   -1.2816 C   0  0  0  0  0  4           0  0  0
   -6.9479    1.4356   -0.0451 C   0  0  0  0  0  4           0  0  0
    2.9243   -4.6437    0.0526 C   0  0  0  0  0  4           0  0  0
   -9.1614    1.3141    1.0043 C   0  0  0  0  0  4           0  0  0
   -6.3632    1.5632    1.2259 C   0  0  0  0  0  4           0  0  0
   -7.1679    1.5870    2.3720 C   0  0  0  0  0  4           0  0  0
    4.5597   -6.4188   -0.2055 C   0  0  0  0  0  4           0  0  0
    2.6625   -6.2936   -1.7022 C   0  0  0  0  0  4           0  0  0
   -8.3440    1.3162   -0.1391 C   0  0  0  0  0  4           0  0  0
    4.1044   -5.2807    0.4589 C   0  0  0  0  0  4           0  0  0
    2.2056   -5.1550   -1.0345 C   0  0  0  0  0  4           0  0  0
   -4.9024    1.6981    1.4348 C   0  0  0  0  0  4           0  0  0
   -2.0831   -0.0537    1.3692 C   0  0  2  0  0  4           0  0  0
    1.8585   -2.5346    0.0729 C   0  0  0  0  0  4           0  0  0
   -6.7578    1.3489   -2.3940 C   0  0  0  0  0  4           0  0  0
   -2.6812   -2.3200    1.7308 C   0  0  0  0  0  4           0  0  0
   -2.6439    1.1284    0.5603 C   0  0  1  0  0  4           0  0  0
   -0.5439    0.0000    1.3722 C   0  0  0  0  0  4           0  0  0
    1.4647   -0.0000    0.0000 C   0  0  0  0  0  4           0  0  0
   -0.5040    1.1494   -0.7685 C   0  0  0  0  0  4           0  0  0
    2.1824   -1.1752    0.6785 C   0  0  0  0  0  4           0  0  0
   -2.0320    1.1569   -0.8412 C   0  0  0  0  0  4           0  0  0
  1 10  1  0     0  0
  2 11  1  0     0  0
  3 13  1  0     0  0
  3 24  1  0     0  0
  4 12  1  0     0  0
  4 25  1  0     0  0
  5 22  2  0     0  0
  6 23  1  0     0  0
  6 26  1  0     0  0
  7 14  1  0     0  0
  8 28  1  0     0  0
  8 29  1  0     0  0
  8 30  1  0     0  0
  9 22  1  0     0  0
  9 27  1  0     0  0
 10 14  1  0     0  0
 10 16  2  0     0  0
 11 17  2  0     0  0
 11 18  1  0     0  0
 12 15  2  0     0  0
 12 19  1  0     0  0
 13 20  2  0     0  0
 13 21  1  0     0  0
 14 19  2  0     0  0
 15 16  1  0     0  0
 15 22  1  0     0  0
 17 20  1  0     0  0
 18 21  2  0     0  0
 23 27  1  0     0  0
 23 28  1  0     0  0
 24 31  1  0     0  0
 27 32  1  0     0  0
 29 31  1  0     0  0
 30 32  1  0     0  0
M  END
> <standard_type>
pIC50

> <# Confs.>
25

> <canonical_smiles>
O=C(C1=C(OC)C=C(N)C(Cl)=C1)N[C@H]2[C@H](CN(CC2)CCCOC3=CC=C(F)C=C3)OC

> <standard_relation>
=

> <Publication_ID>
nan

> <predicted_activity_value>
nan

> <actual_activity_value>
2.154901959985743

> <Compound>
Cisapride

> <standard_units>
uM

> hash
13737733649442168542

$$$$
9
XXILIB    08252103503D 0   0.00000     0.00000

 32 34  0     1  0            999 V2000
   -9.4801    4.1985    1.4887 Cl  0  0  0  0  0  1           0  0  0
    2.0467   -5.0049   -7.2722 F   0  0  0  0  0  1           0  0  0
    2.5803   -1.0927   -3.4587 O   0  0  0  0  0  2           0  0  0
   -6.0859   -0.0711   -0.7620 O   0  0  0  0  0  2           0  0  0
   -4.4260    3.3696    0.3541 O   0  0  0  0  0  2           0  0  0
   -2.5363   -1.2702    0.7824 O   0  0  0  0  0  2           0  0  0
  -10.5251    1.6317    0.2357 N   0  0  0  0  0  3           0  0  0
    0.0000    0.0000    0.0000 N   0  0  2  0  0  3           0  0  0
   -4.0930    1.0843    0.4944 N   0  0  0  0  0  3           0  0  0
   -8.5339    2.9076    0.8325 C   0  0  0  0  0  4           0  0  0
    2.1575   -4.0638   -6.3241 C   0  0  0  0  0  4           0  0  0
   -6.9226    0.8623   -0.2193 C   0  0  0  0  0  4           0  0  0
    2.3865   -2.1105   -4.3492 C   0  0  0  0  0  4           0  0  0
   -9.1432    1.7633    0.3029 C   0  0  0  0  0  4           0  0  0
   -6.3364    2.0120    0.3359 C   0  0  0  0  0  4           0  0  0
   -7.1427    3.0352    0.8501 C   0  0  0  0  0  4           0  0  0
    2.9876   -2.9697   -6.5384 C   0  0  0  0  0  4           0  0  0
    1.4389   -4.1953   -5.1402 C   0  0  0  0  0  4           0  0  0
   -8.3228    0.7550   -0.2317 C   0  0  0  0  0  4           0  0  0
    3.0988   -1.9925   -5.5500 C   0  0  0  0  0  4           0  0  0
    1.5528   -3.2172   -4.1496 C   0  0  0  0  0  4           0  0  0
   -4.8712    2.2249    0.3955 C   0  0  0  0  0  4           0  0  0
   -2.0831   -0.0537    1.3692 C   0  0  2  0  0  4           0  0  0
    1.8585   -1.2042   -2.2315 C   0  0  0  0  0  4           0  0  0
   -6.7289   -1.2185   -1.3120 C   0  0  0  0  0  4           0  0  0
   -2.6812   -2.3200    1.7308 C   0  0  0  0  0  4           0  0  0
   -2.6439    1.1284    0.5603 C   0  0  1  0  0  4           0  0  0
   -0.5439    0.0000    1.3722 C   0  0  0  0  0  4           0  0  0
    1.4647    0.0000    0.0000 C   0  0  0  0  0  4           0  0  0
   -0.5040    1.1494   -0.7685 C   0  0  0  0  0  4           0  0  0
    2.1824    0.0000   -1.3570 C   0  0  0  0  0  4           0  0  0
   -2.0320    1.1569   -0.8412 C   0  0  0  0  0  4           0  0  0
  1 10  1  0     0  0
  2 11  1  0     0  0
  3 13  1  0     0  0
  3 24  1  0     0  0
  4 12  1  0     0  0
  4 25  1  0     0  0
  5 22  2  0     0  0
  6 23  1  0     0  0
  6 26  1  0     0  0
  7 14  1  0     0  0
  8 28  1  0     0  0
  8 29  1  0     0  0
  8 30  1  0     0  0
  9 22  1  0     0  0
  9 27  1  0     0  0
 10 14  1  0     0  0
 10 16  2  0     0  0
 11 17  2  0     0  0
 11 18  1  0     0  0
 12 15  2  0     0  0
 12 19  1  0     0  0
 13 20  2  0     0  0
 13 21  1  0     0  0
 14 19  2  0     0  0
 15 16  1  0     0  0
 15 22  1  0     0  0
 17 20  1  0     0  0
 18 21  2  0     0  0
 23 27  1  0     0  0
 23 28  1  0     0  0
 24 31  1  0     0  0
 27 32  1  0     0  0
 29 31  1  0     0  0
 30 32  1  0     0  0
M  END
> <standard_type>
pIC50

> <# Confs.>
25

> <canonical_smiles>
O=C(C1=C(OC)C=C(N)C(Cl)=C1)N[C@H]2[C@H](CN(CC2)CCCOC3=CC=C(F)C=C3)OC

> <standard_relation>
=

> <Publication_ID>
nan

> <predicted_activity_value>
nan

> <actual_activity_value>
2.154901959985743

> <Compound>
Cisapride

> <standard_units>
uM

> hash
13737733649442168542

$$$$
9
XXILIB    08252103503D 0   0.00000     0.00000

 32 34  0     1  0            999 V2000
   -4.9010   -8.2136    1.1380 Cl  0  0  0  0  0  1           0  0  0
    2.0413    5.0014   -7.2751 F   0  0  0  0  0  1           0  0  0
    2.5803    1.0927   -3.4587 O   0  0  0  0  0  2           0  0  0
   -2.5899   -3.3956    3.6402 O   0  0  0  0  0  2           0  0  0
   -4.7346   -3.0319    0.2930 O   0  0  0  0  0  2           0  0  0
   -2.4499    0.1014    2.7805 O   0  0  0  0  0  2           0  0  0
   -3.5894   -8.1437    3.8813 N   0  0  0  0  0  3           0  0  0
   -0.0000    0.0000    0.0000 N   0  0  2  0  0  3           0  0  0
   -2.7837   -2.2887    1.2907 N   0  0  0  0  0  3           0  0  0
   -4.2259   -6.8302    1.9271 C   0  0  0  0  0  4           0  0  0
    2.1549    4.0621   -6.3255 C   0  0  0  0  0  4           0  0  0
   -3.1450   -4.5355    3.1321 C   0  0  0  0  0  4           0  0  0
    2.3865    2.1105   -4.3492 C   0  0  0  0  0  4           0  0  0
   -3.6692   -6.9303    3.2082 C   0  0  0  0  0  4           0  0  0
   -3.7273   -4.4586    1.8560 C   0  0  0  0  0  4           0  0  0
   -4.2561   -5.6069    1.2530 C   0  0  0  0  0  4           0  0  0
    2.9824    2.9663   -6.5411 C   0  0  0  0  0  4           0  0  0
    1.4441    4.1986   -5.1375 C   0  0  0  0  0  4           0  0  0
   -3.1205   -5.7752    3.7914 C   0  0  0  0  0  4           0  0  0
    3.0988    1.9925   -5.5500 C   0  0  0  0  0  4           0  0  0
    1.5591    3.2214   -4.1463 C   0  0  0  0  0  4           0  0  0
   -3.8017   -3.2017    1.0748 C   0  0  0  0  0  4           0  0  0
   -2.0342    0.1009    1.4178 C   0  0  2  0  0  4           0  0  0
    1.8585    1.2042   -2.2315 C   0  0  0  0  0  4           0  0  0
   -2.0123   -3.5254    4.9371 C   0  0  0  0  0  4           0  0  0
   -3.8504    0.2982    2.9302 C   0  0  0  0  0  4           0  0  0
   -2.7159   -1.0139    0.6005 C   0  0  1  0  0  4           0  0  0
   -0.5038    0.0000    1.3805 C   0  0  0  0  0  4           0  0  0
    1.4647    0.0000    0.0000 C   0  0  0  0  0  4           0  0  0
   -0.5438   -1.1365   -0.7594 C   0  0  0  0  0  4           0  0  0
    2.1824    0.0000   -1.3570 C   0  0  0  0  0  4           0  0  0
   -2.0766   -1.1231   -0.7888 C   0  0  0  0  0  4           0  0  0
  1 10  1  0     0  0
  2 11  1  0     0  0
  3 13  1  0     0  0
  3 24  1  0     0  0
  4 12  1  0     0  0
  4 25  1  0     0  0
  5 22  2  0     0  0
  6 23  1  0     0  0
  6 26  1  0     0  0
  7 14  1  0     0  0
  8 28  1  0     0  0
  8 29  1  0     0  0
  8 30  1  0     0  0
  9 22  1  0     0  0
  9 27  1  0     0  0
 10 14  1  0     0  0
 10 16  2  0     0  0
 11 17  2  0     0  0
 11 18  1  0     0  0
 12 15  2  0     0  0
 12 19  1  0     0  0
 13 20  2  0     0  0
 13 21  1  0     0  0
 14 19  2  0     0  0
 15 16  1  0     0  0
 15 22  1  0     0  0
 17 20  1  0     0  0
 18 21  2  0     0  0
 23 27  1  0     0  0
 23 28  1  0     0  0
 24 31  1  0     0  0
 27 32  1  0     0  0
 29 31  1  0     0  0
 30 32  1  0     0  0
M  END
> <standard_type>
pIC50

> <# Confs.>
25

> <canonical_smiles>
O=C(C1=C(OC)C=C(N)C(Cl)=C1)N[C@H]2[C@H](CN(CC2)CCCOC3=CC=C(F)C=C3)OC

> <standard_relation>
=

> <Publication_ID>
nan

> <predicted_activity_value>
nan

> <actual_activity_value>
2.154901959985743

> <Compound>
Cisapride

> <standard_units>
uM

> hash
13737733649442168542

$$$$
9
XXILIB    08252103503D 0   0.00000     0.00000

 32 34  0     1  0            999 V2000
   -9.4986    1.4899    3.7071 Cl  0  0  0  0  0  1           0  0  0
    2.0467   -5.0049   -7.2722 F   0  0  0  0  0  1           0  0  0
    2.5803   -1.0927   -3.4587 O   0  0  0  0  0  2           0  0  0
   -6.1166    1.4829   -1.1278 O   0  0  0  0  0  2           0  0  0
   -4.4877    2.3311    2.4031 O   0  0  0  0  0  2           0  0  0
   -2.5363   -1.2702    0.7824 O   0  0  0  0  0  2           0  0  0
  -10.5414    1.2310    0.8617 N   0  0  0  0  0  3           0  0  0
    0.0000    0.0000    0.0000 N   0  0  2  0  0  3           0  0  0
   -4.0930    1.0843    0.4944 N   0  0  0  0  0  3           0  0  0
   -8.5548    1.4625    2.2578 C   0  0  0  0  0  4           0  0  0
    2.1575   -4.0638   -6.3241 C   0  0  0  0  0  4           0  0  0
   -6.9479    1.4356   -0.0451 C   0  0  0  0  0  4           0  0  0
    2.3865   -2.1105   -4.3492 C   0  0  0  0  0  4           0  0  0
   -9.1614    1.3141    1.0043 C   0  0  0  0  0  4           0  0  0
   -6.3632    1.5632    1.2259 C   0  0  0  0  0  4           0  0  0
   -7.1679    1.5870    2.3720 C   0  0  0  0  0  4           0  0  0
    2.9876   -2.9697   -6.5384 C   0  0  0  0  0  4           0  0  0
    1.4389   -4.1953   -5.1402 C   0  0  0  0  0  4           0  0  0
   -8.3440    1.3162   -0.1391 C   0  0  0  0  0  4           0  0  0
    3.0988   -1.9925   -5.5500 C   0  0  0  0  0  4           0  0  0
    1.5528   -3.2172   -4.1496 C   0  0  0  0  0  4           0  0  0
   -4.9024    1.6981    1.4348 C   0  0  0  0  0  4           0  0  0
   -2.0831   -0.0537    1.3692 C   0  0  2  0  0  4           0  0  0
    1.8585   -1.2042   -2.2315 C   0  0  0  0  0  4           0  0  0
   -6.7578    1.3489   -2.3940 C   0  0  0  0  0  4           0  0  0
   -2.6812   -2.3200    1.7308 C   0  0  0  0  0  4           0  0  0
   -2.6439    1.1284    0.5603 C   0  0  1  0  0  4           0  0  0
   -0.5439    0.0000    1.3722 C   0  0  0  0  0  4           0  0  0
    1.4647    0.0000    0.0000 C   0  0  0  0  0  4           0  0  0
   -0.5040    1.1494   -0.7685 C   0  0  0  0  0  4           0  0  0
    2.1824    0.0000   -1.3570 C   0  0  0  0  0  4           0  0  0
   -2.0320    1.1569   -0.8412 C   0  0  0  0  0  4           0  0  0
  1 10  1  0     0  0
  2 11  1  0     0  0
  3 13  1  0     0  0
  3 24  1  0     0  0
  4 12  1  0     0  0
  4 25  1  0     0  0
  5 22  2  0     0  0
  6 23  1  0     0  0
  6 26  1  0     0  0
  7 14  1  0     0  0
  8 28  1  0     0  0
  8 29  1  0     0  0
  8 30  1  0     0  0
  9 22  1  0     0  0
  9 27  1  0     0  0
 10 14  1  0     0  0
 10 16  2  0     0  0
 11 17  2  0     0  0
 11 18  1  0     0  0
 12 15  2  0     0  0
 12 19  1  0     0  0
 13 20  2  0     0  0
 13 21  1  0     0  0
 14 19  2  0     0  0
 15 16  1  0     0  0
 15 22  1  0     0  0
 17 20  1  0     0  0
 18 21  2  0     0  0
 23 27  1  0     0  0
 23 28  1  0     0  0
 24 31  1  0     0  0
 27 32  1  0     0  0
 29 31  1  0     0  0
 30 32  1  0     0  0
M  END
> <standard_type>
pIC50

> <# Confs.>
25

> <canonical_smiles>
O=C(C1=C(OC)C=C(N)C(Cl)=C1)N[C@H]2[C@H](CN(CC2)CCCOC3=CC=C(F)C=C3)OC

> <standard_relation>
=

> <Publication_ID>
nan

> <predicted_activity_value>
nan

> <actual_activity_value>
2.154901959985743

> <Compound>
Cisapride

> <standard_units>
uM

> hash
13737733649442168542

$$$$
9
XXILIB    08252103503D 0   0.00000     0.00000

 32 34  0     1  0            999 V2000
   -9.3341    4.0045   -1.4066 Cl  0  0  0  0  0  1           0  0  0
    2.0467   -5.0049   -7.2722 F   0  0  0  0  0  1           0  0  0
    2.5803   -1.0927   -3.4587 O   0  0  0  0  0  2           0  0  0
   -6.1945    0.0147    1.6000 O   0  0  0  0  0  2           0  0  0
   -4.4260    3.3696    0.3541 O   0  0  0  0  0  2           0  0  0
   -2.5363   -1.2702    0.7824 O   0  0  0  0  0  2           0  0  0
  -10.5083    1.5801    0.0056 N   0  0  0  0  0  3           0  0  0
    0.0000    0.0000    0.0000 N   0  0  2  0  0  3           0  0  0
   -4.0930    1.0843    0.4944 N   0  0  0  0  0  3           0  0  0
   -8.4665    2.8161   -0.4970 C   0  0  0  0  0  4           0  0  0
    2.1575   -4.0638   -6.3241 C   0  0  0  0  0  4           0  0  0
   -6.9797    0.9270    0.9543 C   0  0  0  0  0  4           0  0  0
    2.3865   -2.1105   -4.3492 C   0  0  0  0  0  4           0  0  0
   -9.1348    1.7551    0.1264 C   0  0  0  0  0  4           0  0  0
   -6.3364    2.0120    0.3359 C   0  0  0  0  0  4           0  0  0
   -7.0792    2.9468   -0.3963 C   0  0  0  0  0  4           0  0  0
    2.9876   -2.9697   -6.5384 C   0  0  0  0  0  4           0  0  0
    1.4389   -4.1953   -5.1402 C   0  0  0  0  0  4           0  0  0
   -8.3744    0.8109    0.8376 C   0  0  0  0  0  4           0  0  0
    3.0988   -1.9925   -5.5500 C   0  0  0  0  0  4           0  0  0
    1.5528   -3.2172   -4.1496 C   0  0  0  0  0  4           0  0  0
   -4.8712    2.2249    0.3955 C   0  0  0  0  0  4           0  0  0
   -2.0831   -0.0537    1.3692 C   0  0  2  0  0  4           0  0  0
    1.8585   -1.2042   -2.2315 C   0  0  0  0  0  4           0  0  0
   -6.8943   -1.0667    2.2109 C   0  0  0  0  0  4           0  0  0
   -2.6812   -2.3200    1.7308 C   0  0  0  0  0  4           0  0  0
   -2.6439    1.1284    0.5603 C   0  0  1  0  0  4           0  0  0
   -0.5439    0.0000    1.3722 C   0  0  0  0  0  4           0  0  0
    1.4647    0.0000    0.0000 C   0  0  0  0  0  4           0  0  0
   -0.5040    1.1494   -0.7685 C   0  0  0  0  0  4           0  0  0
    2.1824    0.0000   -1.3570 C   0  0  0  0  0  4           0  0  0
   -2.0320    1.1569   -0.8412 C   0  0  0  0  0  4           0  0  0
  1 10  1  0     0  0
  2 11  1  0     0  0
  3 13  1  0     0  0
  3 24  1  0     0  0
  4 12  1  0     0  0
  4 25  1  0     0  0
  5 22  2  0     0  0
  6 23  1  0     0  0
  6 26  1  0     0  0
  7 14  1  0     0  0
  8 28  1  0     0  0
  8 29  1  0     0  0
  8 30  1  0     0  0
  9 22  1  0     0  0
  9 27  1  0     0  0
 10 14  1  0     0  0
 10 16  2  0     0  0
 11 17  2  0     0  0
 11 18  1  0     0  0
 12 15  2  0     0  0
 12 19  1  0     0  0
 13 20  2  0     0  0
 13 21  1  0     0  0
 14 19  2  0     0  0
 15 16  1  0     0  0
 15 22  1  0     0  0
 17 20  1  0     0  0
 18 21  2  0     0  0
 23 27  1  0     0  0
 23 28  1  0     0  0
 24 31  1  0     0  0
 27 32  1  0     0  0
 29 31  1  0     0  0
 30 32  1  0     0  0
M  END
> <standard_type>
pIC50

> <# Confs.>
25

> <canonical_smiles>
O=C(C1=C(OC)C=C(N)C(Cl)=C1)N[C@H]2[C@H](CN(CC2)CCCOC3=CC=C(F)C=C3)OC

> <standard_relation>
=

> <Publication_ID>
nan

> <predicted_activity_value>
nan

> <actual_activity_value>
2.154901959985743

> <Compound>
Cisapride

> <standard_units>
uM

> hash
13737733649442168542

$$$$
9
XXILIB    08252103503D 0   0.00000     0.00000

 32 34  0     1  0            999 V2000
   -9.4801    4.1985    1.4887 Cl  0  0  0  0  0  1           0  0  0
    9.4709    1.2850    1.6180 F   0  0  0  0  0  1           0  0  0
    4.1196    0.1070    1.2891 O   0  0  0  0  0  2           0  0  0
   -6.0859   -0.0711   -0.7620 O   0  0  0  0  0  2           0  0  0
   -4.4260    3.3696    0.3541 O   0  0  0  0  0  2           0  0  0
   -2.5363   -1.2702    0.7824 O   0  0  0  0  0  2           0  0  0
  -10.5251    1.6317    0.2357 N   0  0  0  0  0  3           0  0  0
    0.0000    0.0000    0.0000 N   0  0  2  0  0  3           0  0  0
   -4.0930    1.0843    0.4944 N   0  0  0  0  0  3           0  0  0
   -8.5339    2.9076    0.8325 C   0  0  0  0  0  4           0  0  0
    8.1708    0.9731    1.5222 C   0  0  0  0  0  4           0  0  0
   -6.9226    0.8623   -0.2193 C   0  0  0  0  0  4           0  0  0
    5.4686    0.3198    1.3225 C   0  0  0  0  0  4           0  0  0
   -9.1432    1.7633    0.3029 C   0  0  0  0  0  4           0  0  0
   -6.3364    2.0120    0.3359 C   0  0  0  0  0  4           0  0  0
   -7.1427    3.0352    0.8501 C   0  0  0  0  0  4           0  0  0
    7.2199    1.8223    2.0762 C   0  0  0  0  0  4           0  0  0
    7.7921   -0.1949    0.8684 C   0  0  0  0  0  4           0  0  0
   -8.3228    0.7550   -0.2317 C   0  0  0  0  0  4           0  0  0
    5.8685    1.4947    1.9729 C   0  0  0  0  0  4           0  0  0
    6.4384   -0.5237    0.7677 C   0  0  0  0  0  4           0  0  0
   -4.8712    2.2249    0.3955 C   0  0  0  0  0  4           0  0  0
   -2.0831   -0.0537    1.3692 C   0  0  2  0  0  4           0  0  0
    3.7022   -1.0881    0.6282 C   0  0  0  0  0  4           0  0  0
   -6.7289   -1.2185   -1.3120 C   0  0  0  0  0  4           0  0  0
   -2.6812   -2.3200    1.7308 C   0  0  0  0  0  4           0  0  0
   -2.6439    1.1284    0.5603 C   0  0  1  0  0  4           0  0  0
   -0.5439    0.0000    1.3722 C   0  0  0  0  0  4           0  0  0
    1.4647   -0.0000    0.0000 C   0  0  0  0  0  4           0  0  0
   -0.5040    1.1494   -0.7685 C   0  0  0  0  0  4           0  0  0
    2.1824   -1.1752    0.6785 C   0  0  0  0  0  4           0  0  0
   -2.0320    1.1569   -0.8412 C   0  0  0  0  0  4           0  0  0
  1 10  1  0     0  0
  2 11  1  0     0  0
  3 13  1  0     0  0
  3 24  1  0     0  0
  4 12  1  0     0  0
  4 25  1  0     0  0
  5 22  2  0     0  0
  6 23  1  0     0  0
  6 26  1  0     0  0
  7 14  1  0     0  0
  8 28  1  0     0  0
  8 29  1  0     0  0
  8 30  1  0     0  0
  9 22  1  0     0  0
  9 27  1  0     0  0
 10 14  1  0     0  0
 10 16  2  0     0  0
 11 17  2  0     0  0
 11 18  1  0     0  0
 12 15  2  0     0  0
 12 19  1  0     0  0
 13 20  2  0     0  0
 13 21  1  0     0  0
 14 19  2  0     0  0
 15 16  1  0     0  0
 15 22  1  0     0  0
 17 20  1  0     0  0
 18 21  2  0     0  0
 23 27  1  0     0  0
 23 28  1  0     0  0
 24 31  1  0     0  0
 27 32  1  0     0  0
 29 31  1  0     0  0
 30 32  1  0     0  0
M  END
> <standard_type>
pIC50

> <# Confs.>
25

> <canonical_smiles>
O=C(C1=C(OC)C=C(N)C(Cl)=C1)N[C@H]2[C@H](CN(CC2)CCCOC3=CC=C(F)C=C3)OC

> <standard_relation>
=

> <Publication_ID>
nan

> <predicted_activity_value>
nan

> <actual_activity_value>
2.154901959985743

> <Compound>
Cisapride

> <standard_units>
uM

> hash
13737733649442168542

$$$$
9
XXILIB    08252103503D 0   0.00000     0.00000

 32 34  0     1  0            999 V2000
   -5.3116   -7.5609    3.4723 Cl  0  0  0  0  0  1           0  0  0
    0.3387    3.1034   -8.0484 F   0  0  0  0  0  1           0  0  0
    2.5803    1.0927   -3.4587 O   0  0  0  0  0  2           0  0  0
   -0.7490   -4.2927    1.6513 O   0  0  0  0  0  2           0  0  0
   -4.4308   -3.3509    0.4693 O   0  0  0  0  0  2           0  0  0
   -2.5347   -0.0005    2.7587 O   0  0  0  0  0  2           0  0  0
   -2.3867   -8.2600    3.9272 N   0  0  0  0  0  3           0  0  0
   -0.0000    0.0000    0.0000 N   0  0  2  0  0  3           0  0  0
   -2.4950   -2.3709    1.2728 N   0  0  0  0  0  3           0  0  0
   -3.9374   -6.6333    2.9792 C   0  0  0  0  0  4           0  0  0
    0.8731    2.6339   -6.9122 C   0  0  0  0  0  4           0  0  0
   -1.7627   -5.0701    2.1348 C   0  0  0  0  0  4           0  0  0
    1.9803    1.6597   -4.5472 C   0  0  0  0  0  4           0  0  0
   -2.6361   -7.0591    3.2734 C   0  0  0  0  0  4           0  0  0
   -3.0786   -4.6558    1.8700 C   0  0  0  0  0  4           0  0  0
   -4.1611   -5.4428    2.2830 C   0  0  0  0  0  4           0  0  0
    1.7158    1.5294   -6.9566 C   0  0  0  0  0  4           0  0  0
    0.5775    3.2598   -5.7056 C   0  0  0  0  0  4           0  0  0
   -1.5586   -6.2720    2.8319 C   0  0  0  0  0  4           0  0  0
    2.2706    1.0453   -5.7725 C   0  0  0  0  0  4           0  0  0
    1.1315    2.7727   -4.5196 C   0  0  0  0  0  4           0  0  0
   -3.4027   -3.4076    1.1403 C   0  0  0  0  0  4           0  0  0
   -2.0411    0.0607    1.4236 C   0  0  2  0  0  4           0  0  0
    1.8585    1.2042   -2.2315 C   0  0  0  0  0  4           0  0  0
    0.5669   -4.7553    1.9464 C   0  0  0  0  0  4           0  0  0
   -3.7241    0.7571    2.9427 C   0  0  0  0  0  4           0  0  0
   -2.6712   -1.0874    0.6186 C   0  0  1  0  0  4           0  0  0
   -0.5041    0.0000    1.3828 C   0  0  0  0  0  4           0  0  0
    1.4647    0.0000    0.0000 C   0  0  0  0  0  4           0  0  0
   -0.5426   -1.1344   -0.7643 C   0  0  0  0  0  4           0  0  0
    2.1824    0.0000   -1.3570 C   0  0  0  0  0  4           0  0  0
   -2.0752   -1.1134   -0.7912 C   0  0  0  0  0  4           0  0  0
  1 10  1  0     0  0
  2 11  1  0     0  0
  3 13  1  0     0  0
  3 24  1  0     0  0
  4 12  1  0     0  0
  4 25  1  0     0  0
  5 22  2  0     0  0
  6 23  1  0     0  0
  6 26  1  0     0  0
  7 14  1  0     0  0
  8 28  1  0     0  0
  8 29  1  0     0  0
  8 30  1  0     0  0
  9 22  1  0     0  0
  9 27  1  0     0  0
 10 14  1  0     0  0
 10 16  2  0     0  0
 11 17  2  0     0  0
 11 18  1  0     0  0
 12 15  2  0     0  0
 12 19  1  0     0  0
 13 20  2  0     0  0
 13 21  1  0     0  0
 14 19  2  0     0  0
 15 16  1  0     0  0
 15 22  1  0     0  0
 17 20  1  0     0  0
 18 21  2  0     0  0
 23 27  1  0     0  0
 23 28  1  0     0  0
 24 31  1  0     0  0
 27 32  1  0     0  0
 29 31  1  0     0  0
 30 32  1  0     0  0
M  END
> <standard_type>
pIC50

> <# Confs.>
25

> <canonical_smiles>
O=C(C1=C(OC)C=C(N)C(Cl)=C1)N[C@H]2[C@H](CN(CC2)CCCOC3=CC=C(F)C=C3)OC

> <standard_relation>
=

> <Publication_ID>
nan

> <predicted_activity_value>
nan

> <actual_activity_value>
2.154901959985743

> <Compound>
Cisapride

> <standard_units>
uM

> hash
13737733649442168542

$$$$
9
XXILIB    08252103503D 0   0.00000     0.00000

 32 34  0     1  0            999 V2000
   -4.6519   -8.2546    1.9335 Cl  0  0  0  0  0  1           0  0  0
    2.0413    5.0014   -7.2751 F   0  0  0  0  0  1           0  0  0
    2.5803    1.0927   -3.4587 O   0  0  0  0  0  2           0  0  0
   -0.6832   -3.9114    2.3817 O   0  0  0  0  0  2           0  0  0
   -3.5909   -3.6391   -0.3222 O   0  0  0  0  0  2           0  0  0
   -2.5347   -0.0005    2.7587 O   0  0  0  0  0  2           0  0  0
   -2.1432   -8.3681    3.6494 N   0  0  0  0  0  3           0  0  0
   -0.0000    0.0000    0.0000 N   0  0  2  0  0  3           0  0  0
   -2.4950   -2.3709    1.2728 N   0  0  0  0  0  3           0  0  0
   -3.4670   -7.0079    2.1175 C   0  0  0  0  0  4           0  0  0
    2.1549    4.0621   -6.3255 C   0  0  0  0  0  4           0  0  0
   -1.5870   -4.9352    2.3522 C   0  0  0  0  0  4           0  0  0
    2.3865    2.1105   -4.3492 C   0  0  0  0  0  4           0  0  0
   -2.3633   -7.1803    2.9621 C   0  0  0  0  0  4           0  0  0
   -2.7135   -4.7804    1.5272 C   0  0  0  0  0  4           0  0  0
   -3.6439   -5.8200    1.4038 C   0  0  0  0  0  4           0  0  0
    2.9824    2.9663   -6.5411 C   0  0  0  0  0  4           0  0  0
    1.4441    4.1986   -5.1375 C   0  0  0  0  0  4           0  0  0
   -1.4248   -6.1385    3.0579 C   0  0  0  0  0  4           0  0  0
    3.0988    1.9925   -5.5500 C   0  0  0  0  0  4           0  0  0
    1.5591    3.2214   -4.1463 C   0  0  0  0  0  4           0  0  0
   -2.9767   -3.5537    0.7388 C   0  0  0  0  0  4           0  0  0
   -2.0411    0.0607    1.4236 C   0  0  2  0  0  4           0  0  0
    1.8585    1.2042   -2.2315 C   0  0  0  0  0  4           0  0  0
    0.4415   -4.1165    3.2334 C   0  0  0  0  0  4           0  0  0
   -2.6033    1.2765    3.3809 C   0  0  0  0  0  4           0  0  0
   -2.6712   -1.0874    0.6186 C   0  0  1  0  0  4           0  0  0
   -0.5041    0.0000    1.3828 C   0  0  0  0  0  4           0  0  0
    1.4647    0.0000    0.0000 C   0  0  0  0  0  4           0  0  0
   -0.5426   -1.1344   -0.7643 C   0  0  0  0  0  4           0  0  0
    2.1824    0.0000   -1.3570 C   0  0  0  0  0  4           0  0  0
   -2.0752   -1.1134   -0.7912 C   0  0  0  0  0  4           0  0  0
  1 10  1  0     0  0
  2 11  1  0     0  0
  3 13  1  0     0  0
  3 24  1  0     0  0
  4 12  1  0     0  0
  4 25  1  0     0  0
  5 22  2  0     0  0
  6 23  1  0     0  0
  6 26  1  0     0  0
  7 14  1  0     0  0
  8 28  1  0     0  0
  8 29  1  0     0  0
  8 30  1  0     0  0
  9 22  1  0     0  0
  9 27  1  0     0  0
 10 14  1  0     0  0
 10 16  2  0     0  0
 11 17  2  0     0  0
 11 18  1  0     0  0
 12 15  2  0     0  0
 12 19  1  0     0  0
 13 20  2  0     0  0
 13 21  1  0     0  0
 14 19  2  0     0  0
 15 16  1  0     0  0
 15 22  1  0     0  0
 17 20  1  0     0  0
 18 21  2  0     0  0
 23 27  1  0     0  0
 23 28  1  0     0  0
 24 31  1  0     0  0
 27 32  1  0     0  0
 29 31  1  0     0  0
 30 32  1  0     0  0
M  END
> <standard_type>
pIC50

> <# Confs.>
25

> <canonical_smiles>
O=C(C1=C(OC)C=C(N)C(Cl)=C1)N[C@H]2[C@H](CN(CC2)CCCOC3=CC=C(F)C=C3)OC

> <standard_relation>
=

> <Publication_ID>
nan

> <predicted_activity_value>
nan

> <actual_activity_value>
2.154901959985743

> <Compound>
Cisapride

> <standard_units>
uM

> hash
13737733649442168542

$$$$
9
XXILIB    08252103503D 0   0.00000     0.00000

 32 34  0     1  0            999 V2000
   -9.3341    4.0045   -1.4066 Cl  0  0  0  0  0  1           0  0  0
    9.4709    1.2850    1.6180 F   0  0  0  0  0  1           0  0  0
    4.1196    0.1070    1.2891 O   0  0  0  0  0  2           0  0  0
   -6.1945    0.0147    1.6000 O   0  0  0  0  0  2           0  0  0
   -4.4260    3.3696    0.3541 O   0  0  0  0  0  2           0  0  0
   -2.5363   -1.2702    0.7824 O   0  0  0  0  0  2           0  0  0
  -10.5083    1.5801    0.0056 N   0  0  0  0  0  3           0  0  0
    0.0000    0.0000    0.0000 N   0  0  2  0  0  3           0  0  0
   -4.0930    1.0843    0.4944 N   0  0  0  0  0  3           0  0  0
   -8.4665    2.8161   -0.4970 C   0  0  0  0  0  4           0  0  0
    8.1708    0.9731    1.5222 C   0  0  0  0  0  4           0  0  0
   -6.9797    0.9270    0.9543 C   0  0  0  0  0  4           0  0  0
    5.4686    0.3198    1.3225 C   0  0  0  0  0  4           0  0  0
   -9.1348    1.7551    0.1264 C   0  0  0  0  0  4           0  0  0
   -6.3364    2.0120    0.3359 C   0  0  0  0  0  4           0  0  0
   -7.0792    2.9468   -0.3963 C   0  0  0  0  0  4           0  0  0
    7.2199    1.8223    2.0762 C   0  0  0  0  0  4           0  0  0
    7.7921   -0.1949    0.8684 C   0  0  0  0  0  4           0  0  0
   -8.3744    0.8109    0.8376 C   0  0  0  0  0  4           0  0  0
    5.8685    1.4947    1.9729 C   0  0  0  0  0  4           0  0  0
    6.4384   -0.5237    0.7677 C   0  0  0  0  0  4           0  0  0
   -4.8712    2.2249    0.3955 C   0  0  0  0  0  4           0  0  0
   -2.0831   -0.0537    1.3692 C   0  0  2  0  0  4           0  0  0
    3.7022   -1.0881    0.6282 C   0  0  0  0  0  4           0  0  0
   -6.8943   -1.0667    2.2109 C   0  0  0  0  0  4           0  0  0
   -2.6812   -2.3200    1.7308 C   0  0  0  0  0  4           0  0  0
   -2.6439    1.1284    0.5603 C   0  0  1  0  0  4           0  0  0
   -0.5439    0.0000    1.3722 C   0  0  0  0  0  4           0  0  0
    1.4647   -0.0000    0.0000 C   0  0  0  0  0  4           0  0  0
   -0.5040    1.1494   -0.7685 C   0  0  0  0  0  4           0  0  0
    2.1824   -1.1752    0.6785 C   0  0  0  0  0  4           0  0  0
   -2.0320    1.1569   -0.8412 C   0  0  0  0  0  4           0  0  0
  1 10  1  0     0  0
  2 11  1  0     0  0
  3 13  1  0     0  0
  3 24  1  0     0  0
  4 12  1  0     0  0
  4 25  1  0     0  0
  5 22  2  0     0  0
  6 23  1  0     0  0
  6 26  1  0     0  0
  7 14  1  0     0  0
  8 28  1  0     0  0
  8 29  1  0     0  0
  8 30  1  0     0  0
  9 22  1  0     0  0
  9 27  1  0     0  0
 10 14  1  0     0  0
 10 16  2  0     0  0
 11 17  2  0     0  0
 11 18  1  0     0  0
 12 15  2  0     0  0
 12 19  1  0     0  0
 13 20  2  0     0  0
 13 21  1  0     0  0
 14 19  2  0     0  0
 15 16  1  0     0  0
 15 22  1  0     0  0
 17 20  1  0     0  0
 18 21  2  0     0  0
 23 27  1  0     0  0
 23 28  1  0     0  0
 24 31  1  0     0  0
 27 32  1  0     0  0
 29 31  1  0     0  0
 30 32  1  0     0  0
M  END
> <standard_type>
pIC50

> <# Confs.>
25

> <canonical_smiles>
O=C(C1=C(OC)C=C(N)C(Cl)=C1)N[C@H]2[C@H](CN(CC2)CCCOC3=CC=C(F)C=C3)OC

> <standard_relation>
=

> <Publication_ID>
nan

> <predicted_activity_value>
nan

> <actual_activity_value>
2.154901959985743

> <Compound>
Cisapride

> <standard_units>
uM

> hash
13737733649442168542

$$$$
9
XXILIB    08252103503D 0   0.00000     0.00000

 32 34  0     1  0            999 V2000
   -5.3116   -7.5609    3.4723 Cl  0  0  0  0  0  1           0  0  0
    1.4628    7.2740   -3.9316 F   0  0  0  0  0  1           0  0  0
    2.2455    2.3939   -1.5430 O   0  0  0  0  0  2           0  0  0
   -0.7490   -4.2927    1.6513 O   0  0  0  0  0  2           0  0  0
   -4.4308   -3.3509    0.4693 O   0  0  0  0  0  2           0  0  0
   -2.5347   -0.0005    2.7587 O   0  0  0  0  0  2           0  0  0
   -2.3867   -8.2600    3.9272 N   0  0  0  0  0  3           0  0  0
   -0.0000    0.0000    0.0000 N   0  0  2  0  0  3           0  0  0
   -2.4950   -2.3709    1.2728 N   0  0  0  0  0  3           0  0  0
   -3.9374   -6.6333    2.9792 C   0  0  0  0  0  4           0  0  0
    1.6415    6.0693   -3.3716 C   0  0  0  0  0  4           0  0  0
   -1.7627   -5.0701    2.1348 C   0  0  0  0  0  4           0  0  0
    2.0130    3.5622   -2.2119 C   0  0  0  0  0  4           0  0  0
   -2.6361   -7.0591    3.2734 C   0  0  0  0  0  4           0  0  0
   -3.0786   -4.6558    1.8700 C   0  0  0  0  0  4           0  0  0
   -4.1611   -5.4428    2.2830 C   0  0  0  0  0  4           0  0  0
    2.2133    5.9791   -2.1079 C   0  0  0  0  0  4           0  0  0
    1.2506    4.9271   -4.0628 C   0  0  0  0  0  4           0  0  0
   -1.5586   -6.2720    2.8319 C   0  0  0  0  0  4           0  0  0
    2.3959    4.7240   -1.5286 C   0  0  0  0  0  4           0  0  0
    1.4363    3.6701   -3.4830 C   0  0  0  0  0  4           0  0  0
   -3.4027   -3.4076    1.1403 C   0  0  0  0  0  4           0  0  0
   -2.0411    0.0607    1.4236 C   0  0  2  0  0  4           0  0  0
    1.8585    1.2042   -2.2315 C   0  0  0  0  0  4           0  0  0
    0.5669   -4.7553    1.9464 C   0  0  0  0  0  4           0  0  0
   -3.7241    0.7571    2.9427 C   0  0  0  0  0  4           0  0  0
   -2.6712   -1.0874    0.6186 C   0  0  1  0  0  4           0  0  0
   -0.5041    0.0000    1.3828 C   0  0  0  0  0  4           0  0  0
    1.4647   -0.0000    0.0000 C   0  0  0  0  0  4           0  0  0
   -0.5426   -1.1344   -0.7643 C   0  0  0  0  0  4           0  0  0
    2.1824    0.0000   -1.3570 C   0  0  0  0  0  4           0  0  0
   -2.0752   -1.1134   -0.7912 C   0  0  0  0  0  4           0  0  0
  1 10  1  0     0  0
  2 11  1  0     0  0
  3 13  1  0     0  0
  3 24  1  0     0  0
  4 12  1  0     0  0
  4 25  1  0     0  0
  5 22  2  0     0  0
  6 23  1  0     0  0
  6 26  1  0     0  0
  7 14  1  0     0  0
  8 28  1  0     0  0
  8 29  1  0     0  0
  8 30  1  0     0  0
  9 22  1  0     0  0
  9 27  1  0     0  0
 10 14  1  0     0  0
 10 16  2  0     0  0
 11 17  2  0     0  0
 11 18  1  0     0  0
 12 15  2  0     0  0
 12 19  1  0     0  0
 13 20  2  0     0  0
 13 21  1  0     0  0
 14 19  2  0     0  0
 15 16  1  0     0  0
 15 22  1  0     0  0
 17 20  1  0     0  0
 18 21  2  0     0  0
 23 27  1  0     0  0
 23 28  1  0     0  0
 24 31  1  0     0  0
 27 32  1  0     0  0
 29 31  1  0     0  0
 30 32  1  0     0  0
M  END
> <standard_type>
pIC50

> <# Confs.>
25

> <canonical_smiles>
O=C(C1=C(OC)C=C(N)C(Cl)=C1)N[C@H]2[C@H](CN(CC2)CCCOC3=CC=C(F)C=C3)OC

> <standard_relation>
=

> <Publication_ID>
nan

> <predicted_activity_value>
nan

> <actual_activity_value>
2.154901959985743

> <Compound>
Cisapride

> <standard_units>
uM

> hash
13737733649442168542

$$$$
9
XXILIB    08252103503D 0   0.00000     0.00000

 32 34  0     1  0            999 V2000
   -9.4986    1.4899    3.7071 Cl  0  0  0  0  0  1           0  0  0
    9.4709    1.2850    1.6180 F   0  0  0  0  0  1           0  0  0
    4.1196    0.1070    1.2891 O   0  0  0  0  0  2           0  0  0
   -6.1166    1.4829   -1.1278 O   0  0  0  0  0  2           0  0  0
   -4.4877    2.3311    2.4031 O   0  0  0  0  0  2           0  0  0
   -2.5363   -1.2702    0.7824 O   0  0  0  0  0  2           0  0  0
  -10.5414    1.2310    0.8617 N   0  0  0  0  0  3           0  0  0
    0.0000    0.0000    0.0000 N   0  0  2  0  0  3           0  0  0
   -4.0930    1.0843    0.4944 N   0  0  0  0  0  3           0  0  0
   -8.5548    1.4625    2.2578 C   0  0  0  0  0  4           0  0  0
    8.1708    0.9731    1.5222 C   0  0  0  0  0  4           0  0  0
   -6.9479    1.4356   -0.0451 C   0  0  0  0  0  4           0  0  0
    5.4686    0.3198    1.3225 C   0  0  0  0  0  4           0  0  0
   -9.1614    1.3141    1.0043 C   0  0  0  0  0  4           0  0  0
   -6.3632    1.5632    1.2259 C   0  0  0  0  0  4           0  0  0
   -7.1679    1.5870    2.3720 C   0  0  0  0  0  4           0  0  0
    7.2199    1.8223    2.0762 C   0  0  0  0  0  4           0  0  0
    7.7921   -0.1949    0.8684 C   0  0  0  0  0  4           0  0  0
   -8.3440    1.3162   -0.1391 C   0  0  0  0  0  4           0  0  0
    5.8685    1.4947    1.9729 C   0  0  0  0  0  4           0  0  0
    6.4384   -0.5237    0.7677 C   0  0  0  0  0  4           0  0  0
   -4.9024    1.6981    1.4348 C   0  0  0  0  0  4           0  0  0
   -2.0831   -0.0537    1.3692 C   0  0  2  0  0  4           0  0  0
    3.7022   -1.0881    0.6282 C   0  0  0  0  0  4           0  0  0
   -6.7578    1.3489   -2.3940 C   0  0  0  0  0  4           0  0  0
   -2.6812   -2.3200    1.7308 C   0  0  0  0  0  4           0  0  0
   -2.6439    1.1284    0.5603 C   0  0  1  0  0  4           0  0  0
   -0.5439    0.0000    1.3722 C   0  0  0  0  0  4           0  0  0
    1.4647   -0.0000    0.0000 C   0  0  0  0  0  4           0  0  0
   -0.5040    1.1494   -0.7685 C   0  0  0  0  0  4           0  0  0
    2.1824   -1.1752    0.6785 C   0  0  0  0  0  4           0  0  0
   -2.0320    1.1569   -0.8412 C   0  0  0  0  0  4           0  0  0
  1 10  1  0     0  0
  2 11  1  0     0  0
  3 13  1  0     0  0
  3 24  1  0     0  0
  4 12  1  0     0  0
  4 25  1  0     0  0
  5 22  2  0     0  0
  6 23  1  0     0  0
  6 26  1  0     0  0
  7 14  1  0     0  0
  8 28  1  0     0  0
  8 29  1  0     0  0
  8 30  1  0     0  0
  9 22  1  0     0  0
  9 27  1  0     0  0
 10 14  1  0     0  0
 10 16  2  0     0  0
 11 17  2  0     0  0
 11 18  1  0     0  0
 12 15  2  0     0  0
 12 19  1  0     0  0
 13 20  2  0     0  0
 13 21  1  0     0  0
 14 19  2  0     0  0
 15 16  1  0     0  0
 15 22  1  0     0  0
 17 20  1  0     0  0
 18 21  2  0     0  0
 23 27  1  0     0  0
 23 28  1  0     0  0
 24 31  1  0     0  0
 27 32  1  0     0  0
 29 31  1  0     0  0
 30 32  1  0     0  0
M  END
> <standard_type>
pIC50

> <# Confs.>
25

> <canonical_smiles>
O=C(C1=C(OC)C=C(N)C(Cl)=C1)N[C@H]2[C@H](CN(CC2)CCCOC3=CC=C(F)C=C3)OC

> <standard_relation>
=

> <Publication_ID>
nan

> <predicted_activity_value>
nan

> <actual_activity_value>
2.154901959985743

> <Compound>
Cisapride

> <standard_units>
uM

> hash
13737733649442168542

$$$$
9
XXILIB    08252103503D 0   0.00000     0.00000

 32 34  0     1  0            999 V2000
   -6.4868   -6.9970    3.2468 Cl  0  0  0  0  0  1           0  0  0
    9.4705   -1.2885    1.6119 F   0  0  0  0  0  1           0  0  0
    4.1196   -0.1070    1.2891 O   0  0  0  0  0  2           0  0  0
   -1.3601   -4.4095    1.8915 O   0  0  0  0  0  2           0  0  0
   -4.7346   -3.0319    0.2930 O   0  0  0  0  0  2           0  0  0
   -2.4499    0.1014    2.7805 O   0  0  0  0  0  2           0  0  0
   -3.7473   -8.0577    4.0348 N   0  0  0  0  0  3           0  0  0
   -0.0000    0.0000    0.0000 N   0  0  2  0  0  3           0  0  0
   -2.7837   -2.2887    1.2907 N   0  0  0  0  0  3           0  0  0
   -4.9562   -6.2722    2.8945 C   0  0  0  0  0  4           0  0  0
    8.1706   -0.9748    1.5193 C   0  0  0  0  0  4           0  0  0
   -2.5145   -5.0328    2.2718 C   0  0  0  0  0  4           0  0  0
    5.4686   -0.3198    1.3225 C   0  0  0  0  0  4           0  0  0
   -3.7626   -6.8551    3.3381 C   0  0  0  0  0  4           0  0  0
   -3.7273   -4.4586    1.8560 C   0  0  0  0  0  4           0  0  0
   -4.9431   -5.0846    2.1588 C   0  0  0  0  0  4           0  0  0
    7.2195   -1.8257    2.0703 C   0  0  0  0  0  4           0  0  0
    7.7925    0.1983    0.8743 C   0  0  0  0  0  4           0  0  0
   -2.5487   -6.2292    3.0065 C   0  0  0  0  0  4           0  0  0
    5.8685   -1.4947    1.9729 C   0  0  0  0  0  4           0  0  0
    6.4389    0.5278    0.7748 C   0  0  0  0  0  4           0  0  0
   -3.8017   -3.2017    1.0748 C   0  0  0  0  0  4           0  0  0
   -2.0342    0.1009    1.4178 C   0  0  2  0  0  4           0  0  0
    3.7022    1.0881    0.6282 C   0  0  0  0  0  4           0  0  0
   -0.1572   -5.0307    2.3382 C   0  0  0  0  0  4           0  0  0
   -3.5903    0.9198    3.0094 C   0  0  0  0  0  4           0  0  0
   -2.7159   -1.0139    0.6005 C   0  0  1  0  0  4           0  0  0
   -0.5038    0.0000    1.3805 C   0  0  0  0  0  4           0  0  0
    1.4647    0.0000    0.0000 C   0  0  0  0  0  4           0  0  0
   -0.5438   -1.1365   -0.7594 C   0  0  0  0  0  4           0  0  0
    2.1824    1.1752    0.6785 C   0  0  0  0  0  4           0  0  0
   -2.0766   -1.1231   -0.7888 C   0  0  0  0  0  4           0  0  0
  1 10  1  0     0  0
  2 11  1  0     0  0
  3 13  1  0     0  0
  3 24  1  0     0  0
  4 12  1  0     0  0
  4 25  1  0     0  0
  5 22  2  0     0  0
  6 23  1  0     0  0
  6 26  1  0     0  0
  7 14  1  0     0  0
  8 28  1  0     0  0
  8 29  1  0     0  0
  8 30  1  0     0  0
  9 22  1  0     0  0
  9 27  1  0     0  0
 10 14  1  0     0  0
 10 16  2  0     0  0
 11 17  2  0     0  0
 11 18  1  0     0  0
 12 15  2  0     0  0
 12 19  1  0     0  0
 13 20  2  0     0  0
 13 21  1  0     0  0
 14 19  2  0     0  0
 15 16  1  0     0  0
 15 22  1  0     0  0
 17 20  1  0     0  0
 18 21  2  0     0  0
 23 27  1  0     0  0
 23 28  1  0     0  0
 24 31  1  0     0  0
 27 32  1  0     0  0
 29 31  1  0     0  0
 30 32  1  0     0  0
M  END
> <standard_type>
pIC50

> <# Confs.>
25

> <canonical_smiles>
O=C(C1=C(OC)C=C(N)C(Cl)=C1)N[C@H]2[C@H](CN(CC2)CCCOC3=CC=C(F)C=C3)OC

> <standard_relation>
=

> <Publication_ID>
nan

> <predicted_activity_value>
nan

> <actual_activity_value>
2.154901959985743

> <Compound>
Cisapride

> <standard_units>
uM

> hash
13737733649442168542

$$$$
9
XXILIB    08252103503D 0   0.00000     0.00000

 32 34  0     1  0            999 V2000
   -9.4801    4.1985    1.4887 Cl  0  0  0  0  0  1           0  0  0
    1.4628   -7.0418   -4.3337 F   0  0  0  0  0  1           0  0  0
    2.2455   -2.5333   -1.3017 O   0  0  0  0  0  2           0  0  0
   -6.0859   -0.0711   -0.7620 O   0  0  0  0  0  2           0  0  0
   -4.4260    3.3696    0.3541 O   0  0  0  0  0  2           0  0  0
   -2.5363   -1.2702    0.7824 O   0  0  0  0  0  2           0  0  0
  -10.5251    1.6317    0.2357 N   0  0  0  0  0  3           0  0  0
    0.0000    0.0000    0.0000 N   0  0  2  0  0  3           0  0  0
   -4.0930    1.0843    0.4944 N   0  0  0  0  0  3           0  0  0
   -8.5339    2.9076    0.8325 C   0  0  0  0  0  4           0  0  0
    1.6415   -5.9545   -3.5703 C   0  0  0  0  0  4           0  0  0
   -6.9226    0.8623   -0.2193 C   0  0  0  0  0  4           0  0  0
    2.0130   -3.6967   -1.9790 C   0  0  0  0  0  4           0  0  0
   -9.1432    1.7633    0.3029 C   0  0  0  0  0  4           0  0  0
   -6.3364    2.0120    0.3359 C   0  0  0  0  0  4           0  0  0
   -7.1427    3.0352    0.8501 C   0  0  0  0  0  4           0  0  0
    2.2133   -4.8150   -4.1241 C   0  0  0  0  0  4           0  0  0
    1.2506   -5.9820   -2.2356 C   0  0  0  0  0  4           0  0  0
   -8.3228    0.7550   -0.2317 C   0  0  0  0  0  4           0  0  0
    2.3959   -3.6858   -3.3268 C   0  0  0  0  0  4           0  0  0
    1.4363   -4.8514   -1.4369 C   0  0  0  0  0  4           0  0  0
   -4.8712    2.2249    0.3955 C   0  0  0  0  0  4           0  0  0
   -2.0831   -0.0537    1.3692 C   0  0  2  0  0  4           0  0  0
    1.8585   -2.5346    0.0729 C   0  0  0  0  0  4           0  0  0
   -6.7289   -1.2185   -1.3120 C   0  0  0  0  0  4           0  0  0
   -2.6812   -2.3200    1.7308 C   0  0  0  0  0  4           0  0  0
   -2.6439    1.1284    0.5603 C   0  0  1  0  0  4           0  0  0
   -0.5439    0.0000    1.3722 C   0  0  0  0  0  4           0  0  0
    1.4647    0.0000   -0.0000 C   0  0  0  0  0  4           0  0  0
   -0.5040    1.1494   -0.7685 C   0  0  0  0  0  4           0  0  0
    2.1824   -1.1752    0.6785 C   0  0  0  0  0  4           0  0  0
   -2.0320    1.1569   -0.8412 C   0  0  0  0  0  4           0  0  0
  1 10  1  0     0  0
  2 11  1  0     0  0
  3 13  1  0     0  0
  3 24  1  0     0  0
  4 12  1  0     0  0
  4 25  1  0     0  0
  5 22  2  0     0  0
  6 23  1  0     0  0
  6 26  1  0     0  0
  7 14  1  0     0  0
  8 28  1  0     0  0
  8 29  1  0     0  0
  8 30  1  0     0  0
  9 22  1  0     0  0
  9 27  1  0     0  0
 10 14  1  0     0  0
 10 16  2  0     0  0
 11 17  2  0     0  0
 11 18  1  0     0  0
 12 15  2  0     0  0
 12 19  1  0     0  0
 13 20  2  0     0  0
 13 21  1  0     0  0
 14 19  2  0     0  0
 15 16  1  0     0  0
 15 22  1  0     0  0
 17 20  1  0     0  0
 18 21  2  0     0  0
 23 27  1  0     0  0
 23 28  1  0     0  0
 24 31  1  0     0  0
 27 32  1  0     0  0
 29 31  1  0     0  0
 30 32  1  0     0  0
M  END
> <standard_type>
pIC50

> <# Confs.>
25

> <canonical_smiles>
O=C(C1=C(OC)C=C(N)C(Cl)=C1)N[C@H]2[C@H](CN(CC2)CCCOC3=CC=C(F)C=C3)OC

> <standard_relation>
=

> <Publication_ID>
nan

> <predicted_activity_value>
nan

> <actual_activity_value>
2.154901959985743

> <Compound>
Cisapride

> <standard_units>
uM

> hash
13737733649442168542

$$$$
17
XXILIB    08252103503D 0   0.00000     0.00000

 30 34  0     1  0            999 V2000
   -2.6136   -2.7227    9.3963 Cl  0  0  0  0  0  1           0  0  0
   -3.8757    3.1256    4.9940 O   0  0  0  0  0  2           0  0  0
    4.1238   -2.3219   -1.3445 O   0  0  0  0  0  2           0  0  0
   -2.7264    1.0405    4.9014 N   0  0  2  0  0  3           0  0  0
    3.6184   -1.1582    0.6687 N   0  0  1  0  0  3           0  0  0
   -3.8279    1.6131    6.8069 N   0  0  0  0  0  3           0  0  0
    5.7915   -1.3971    0.0526 N   0  0  0  0  0  3           0  0  0
   -0.5680   -0.0000    1.3507 N   0  0  2  0  0  3           0  0  0
   -2.6062   -1.6594    8.0391 C   0  0  0  0  0  4           0  0  0
   -3.5214    2.0672    5.4949 C   0  0  0  0  0  4           0  0  0
    4.4600   -1.7087   -0.3410 C   0  0  0  0  0  4           0  0  0
   -2.5653    0.0001    5.8369 C   0  0  0  0  0  4           0  0  0
    4.4213   -0.5236    1.6312 C   0  0  0  0  0  4           0  0  0
   -3.2434    0.3622    7.0004 C   0  0  0  0  0  4           0  0  0
    5.7521   -0.6785    1.2473 C   0  0  0  0  0  4           0  0  0
   -3.2844   -0.4409    8.1196 C   0  0  0  0  0  4           0  0  0
   -1.9166   -2.0394    6.8692 C   0  0  0  0  0  4           0  0  0
   -1.8916   -1.2016    5.7483 C   0  0  0  0  0  4           0  0  0
    4.0800    0.1577    2.7814 C   0  0  0  0  0  4           0  0  0
    6.7993   -0.1702    1.9841 C   0  0  0  0  0  4           0  0  0
    5.1264    0.6828    3.5475 C   0  0  0  0  0  4           0  0  0
    6.4713    0.5203    3.1537 C   0  0  0  0  0  4           0  0  0
   -2.1762    1.0718    3.5617 C   0  0  2  0  0  4           0  0  0
    2.1685   -1.2001    0.6929 C   0  0  0  0  0  4           0  0  0
   -2.0385   -0.0000    1.2797 C   0  0  0  0  0  4           0  0  0
   -0.0841    1.1448    2.1408 C   0  0  0  0  0  4           0  0  0
   -0.0000    0.0000    0.0000 C   0  0  0  0  0  4           0  0  0
   -2.6626   -0.0818    2.6749 C   0  0  0  0  0  4           0  0  0
   -0.6421    1.1164    3.5662 C   0  0  0  0  0  4           0  0  0
    1.5282    0.0000   -0.0000 C   0  0  0  0  0  4           0  0  0
  1  9  1  0     0  0
  2 10  2  0     0  0
  3 11  2  0     0  0
  4 10  1  0     0  0
  4 12  1  0     0  0
  4 23  1  0     0  0
  5 11  1  0     0  0
  5 13  1  0     0  0
  5 24  1  0     0  0
  6 10  1  0     0  0
  6 14  1  0     0  0
  7 11  1  0     0  0
  7 15  1  0     0  0
  8 25  1  0     0  0
  8 26  1  0     0  0
  8 27  1  0     0  0
  9 16  2  0     0  0
  9 17  1  0     0  0
 12 14  2  0     0  0
 12 18  1  0     0  0
 13 15  2  0     0  0
 13 19  1  0     0  0
 14 16  1  0     0  0
 15 20  1  0     0  0
 17 18  2  0     0  0
 19 21  2  0     0  0
 20 22  2  0     0  0
 21 22  1  0     0  0
 23 28  1  0     0  0
 23 29  1  0     0  0
 24 30  1  0     0  0
 25 28  1  0     0  0
 26 29  1  0     0  0
 27 30  1  0     0  0
M  END
> <standard_type>
pIC50

> <# Confs.>
25

> <canonical_smiles>
O=C1N(CCCN2CCC(N3C(C=CC(Cl)=C4)=C4NC3=O)CC2)C5=C(C=CC=C5)N1

> <standard_relation>
=

> <Publication_ID>
nan

> <predicted_activity_value>
nan

> <actual_activity_value>
0.790484985457369

> <Compound>
Domperidone

> <standard_units>
uM

> hash
8190867388067327349

$$$$
17
XXILIB    08252103503D 0   0.00000     0.00000

 30 34  0     1  0            999 V2000
   -2.6136   -2.7227    9.3963 Cl  0  0  0  0  0  1           0  0  0
   -3.8757    3.1256    4.9940 O   0  0  0  0  0  2           0  0  0
   -0.1481    0.3916   -3.3125 O   0  0  0  0  0  2           0  0  0
   -2.7264    1.0405    4.9014 N   0  0  2  0  0  3           0  0  0
    1.7986    1.1574   -2.1783 N   0  0  1  0  0  3           0  0  0
   -3.8279    1.6131    6.8069 N   0  0  0  0  0  3           0  0  0
    0.7144    2.5761   -3.5822 N   0  0  0  0  0  3           0  0  0
   -0.5680   -0.0000    1.3507 N   0  0  2  0  0  3           0  0  0
   -2.6062   -1.6594    8.0391 C   0  0  0  0  0  4           0  0  0
   -3.5214    2.0672    5.4949 C   0  0  0  0  0  4           0  0  0
    0.6800    1.2544   -3.0560 C   0  0  0  0  0  4           0  0  0
   -2.5653    0.0001    5.8369 C   0  0  0  0  0  4           0  0  0
    2.4747    2.3889   -2.1685 C   0  0  0  0  0  4           0  0  0
   -3.2434    0.3622    7.0004 C   0  0  0  0  0  4           0  0  0
    1.8052    3.2512   -3.0350 C   0  0  0  0  0  4           0  0  0
   -3.2844   -0.4409    8.1196 C   0  0  0  0  0  4           0  0  0
   -1.9166   -2.0394    6.8692 C   0  0  0  0  0  4           0  0  0
   -1.8916   -1.2016    5.7483 C   0  0  0  0  0  4           0  0  0
    3.5977    2.7943   -1.4770 C   0  0  0  0  0  4           0  0  0
    2.2185    4.5466   -3.2561 C   0  0  0  0  0  4           0  0  0
    4.0377    4.1061   -1.6854 C   0  0  0  0  0  4           0  0  0
    3.3561    4.9726   -2.5657 C   0  0  0  0  0  4           0  0  0
   -2.1762    1.0718    3.5617 C   0  0  2  0  0  4           0  0  0
    2.1685    0.0000   -1.3858 C   0  0  0  0  0  4           0  0  0
   -2.0385   -0.0000    1.2797 C   0  0  0  0  0  4           0  0  0
   -0.0841    1.1448    2.1408 C   0  0  0  0  0  4           0  0  0
   -0.0000    0.0000    0.0000 C   0  0  0  0  0  4           0  0  0
   -2.6626   -0.0818    2.6749 C   0  0  0  0  0  4           0  0  0
   -0.6421    1.1164    3.5662 C   0  0  0  0  0  4           0  0  0
    1.5282    0.0000    0.0000 C   0  0  0  0  0  4           0  0  0
  1  9  1  0     0  0
  2 10  2  0     0  0
  3 11  2  0     0  0
  4 10  1  0     0  0
  4 12  1  0     0  0
  4 23  1  0     0  0
  5 11  1  0     0  0
  5 13  1  0     0  0
  5 24  1  0     0  0
  6 10  1  0     0  0
  6 14  1  0     0  0
  7 11  1  0     0  0
  7 15  1  0     0  0
  8 25  1  0     0  0
  8 26  1  0     0  0
  8 27  1  0     0  0
  9 16  2  0     0  0
  9 17  1  0     0  0
 12 14  2  0     0  0
 12 18  1  0     0  0
 13 15  2  0     0  0
 13 19  1  0     0  0
 14 16  1  0     0  0
 15 20  1  0     0  0
 17 18  2  0     0  0
 19 21  2  0     0  0
 20 22  2  0     0  0
 21 22  1  0     0  0
 23 28  1  0     0  0
 23 29  1  0     0  0
 24 30  1  0     0  0
 25 28  1  0     0  0
 26 29  1  0     0  0
 27 30  1  0     0  0
M  END
> <standard_type>
pIC50

> <# Confs.>
25

> <canonical_smiles>
O=C1N(CCCN2CCC(N3C(C=CC(Cl)=C4)=C4NC3=O)CC2)C5=C(C=CC=C5)N1

> <standard_relation>
=

> <Publication_ID>
nan

> <predicted_activity_value>
nan

> <actual_activity_value>
0.790484985457369

> <Compound>
Domperidone

> <standard_units>
uM

> hash
8190867388067327349

$$$$
17
XXILIB    08252103503D 0   0.00000     0.00000

 30 34  0     1  0            999 V2000
   -2.1455    2.4295    9.5932 Cl  0  0  0  0  0  1           0  0  0
   -4.1079   -2.9802    4.8963 O   0  0  0  0  0  2           0  0  0
    4.1238   -0.0034    2.6831 O   0  0  0  0  0  2           0  0  0
   -2.7093   -1.0513    4.9086 N   0  0  2  0  0  3           0  0  0
    3.6184    1.1582    0.6687 N   0  0  1  0  0  3           0  0  0
   -3.8853   -1.5771    6.7827 N   0  0  0  0  0  3           0  0  0
    5.7915    0.7441    1.1836 N   0  0  0  0  0  3           0  0  0
   -0.5680   -0.0000    1.3507 N   0  0  2  0  0  3           0  0  0
   -2.2688    1.4481    8.1810 C   0  0  0  0  0  4           0  0  0
   -3.6287   -2.0000    5.4497 C   0  0  0  0  0  4           0  0  0
    4.4600    0.5590    1.6503 C   0  0  0  0  0  4           0  0  0
   -2.4244   -0.0883    5.8962 C   0  0  0  0  0  4           0  0  0
    4.4213    1.6744   -0.3622 C   0  0  0  0  0  4           0  0  0
   -3.1509   -0.4201    7.0393 C   0  0  0  0  0  4           0  0  0
    5.7521    1.4194   -0.0360 C   0  0  0  0  0  4           0  0  0
   -3.0985    0.3245    8.1978 C   0  0  0  0  0  4           0  0  0
   -1.5277    1.7959    7.0327 C   0  0  0  0  0  4           0  0  0
   -1.6025    1.0205    5.8699 C   0  0  0  0  0  4           0  0  0
    4.0800    2.3299   -1.5272 C   0  0  0  0  0  4           0  0  0
    6.7993    1.8034   -0.8447 C   0  0  0  0  0  4           0  0  0
    5.1264    2.7308   -2.3651 C   0  0  0  0  0  4           0  0  0
    6.4713    2.4711   -2.0274 C   0  0  0  0  0  4           0  0  0
   -2.1672   -1.0774    3.5654 C   0  0  2  0  0  4           0  0  0
    2.1685    1.2001    0.6929 C   0  0  0  0  0  4           0  0  0
   -0.1262   -1.1977    2.0839 C   0  0  0  0  0  4           0  0  0
   -2.0383    0.0792    1.3189 C   0  0  0  0  0  4           0  0  0
    0.0000    0.0000    0.0000 C   0  0  0  0  0  4           0  0  0
   -0.6374   -1.1866    3.5266 C   0  0  0  0  0  4           0  0  0
   -2.6265    0.1265    2.7316 C   0  0  0  0  0  4           0  0  0
    1.5282   -0.0000   -0.0000 C   0  0  0  0  0  4           0  0  0
  1  9  1  0     0  0
  2 10  2  0     0  0
  3 11  2  0     0  0
  4 10  1  0     0  0
  4 12  1  0     0  0
  4 23  1  0     0  0
  5 11  1  0     0  0
  5 13  1  0     0  0
  5 24  1  0     0  0
  6 10  1  0     0  0
  6 14  1  0     0  0
  7 11  1  0     0  0
  7 15  1  0     0  0
  8 25  1  0     0  0
  8 26  1  0     0  0
  8 27  1  0     0  0
  9 16  2  0     0  0
  9 17  1  0     0  0
 12 14  2  0     0  0
 12 18  1  0     0  0
 13 15  2  0     0  0
 13 19  1  0     0  0
 14 16  1  0     0  0
 15 20  1  0     0  0
 17 18  2  0     0  0
 19 21  2  0     0  0
 20 22  2  0     0  0
 21 22  1  0     0  0
 23 28  1  0     0  0
 23 29  1  0     0  0
 24 30  1  0     0  0
 25 28  1  0     0  0
 26 29  1  0     0  0
 27 30  1  0     0  0
M  END
> <standard_type>
pIC50

> <# Confs.>
25

> <canonical_smiles>
O=C1N(CCCN2CCC(N3C(C=CC(Cl)=C4)=C4NC3=O)CC2)C5=C(C=CC=C5)N1

> <standard_relation>
=

> <Publication_ID>
nan

> <predicted_activity_value>
nan

> <actual_activity_value>
0.790484985457369

> <Compound>
Domperidone

> <standard_units>
uM

> hash
8190867388067327349

$$$$
17
XXILIB    08252103503D 0   0.00000     0.00000

 30 34  0     1  0            999 V2000
   -2.6136   -2.7227    9.3963 Cl  0  0  0  0  0  1           0  0  0
   -3.8757    3.1256    4.9940 O   0  0  0  0  0  2           0  0  0
    4.1226    0.0347    2.6651 O   0  0  0  0  0  2           0  0  0
   -2.7264    1.0405    4.9014 N   0  0  2  0  0  3           0  0  0
    3.6184   -1.1582    0.6687 N   0  0  1  0  0  3           0  0  0
   -3.8279    1.6131    6.8069 N   0  0  0  0  0  3           0  0  0
    5.7934   -0.7937    1.2122 N   0  0  0  0  0  3           0  0  0
   -0.5680   -0.0000    1.3507 N   0  0  2  0  0  3           0  0  0
   -2.6062   -1.6594    8.0391 C   0  0  0  0  0  4           0  0  0
   -3.5214    2.0672    5.4949 C   0  0  0  0  0  4           0  0  0
    4.4600   -0.5590    1.6503 C   0  0  0  0  0  4           0  0  0
   -2.5653    0.0001    5.8369 C   0  0  0  0  0  4           0  0  0
    4.4241   -1.7464   -0.3206 C   0  0  0  0  0  4           0  0  0
   -3.2434    0.3622    7.0004 C   0  0  0  0  0  4           0  0  0
    5.7558   -1.5145    0.0189 C   0  0  0  0  0  4           0  0  0
   -3.2844   -0.4409    8.1196 C   0  0  0  0  0  4           0  0  0
   -1.9166   -2.0394    6.8692 C   0  0  0  0  0  4           0  0  0
   -1.8916   -1.2016    5.7483 C   0  0  0  0  0  4           0  0  0
    4.0845   -2.4473   -1.4595 C   0  0  0  0  0  4           0  0  0
    6.8054   -1.9622   -0.7530 C   0  0  0  0  0  4           0  0  0
    5.1334   -2.9119   -2.2606 C   0  0  0  0  0  4           0  0  0
    6.4790   -2.6716   -1.9117 C   0  0  0  0  0  4           0  0  0
   -2.1762    1.0718    3.5617 C   0  0  2  0  0  4           0  0  0
    2.1685   -1.2001    0.6929 C   0  0  0  0  0  4           0  0  0
   -2.0385   -0.0000    1.2797 C   0  0  0  0  0  4           0  0  0
   -0.0841    1.1448    2.1408 C   0  0  0  0  0  4           0  0  0
   -0.0000    0.0000    0.0000 C   0  0  0  0  0  4           0  0  0
   -2.6626   -0.0818    2.6749 C   0  0  0  0  0  4           0  0  0
   -0.6421    1.1164    3.5662 C   0  0  0  0  0  4           0  0  0
    1.5282    0.0000   -0.0000 C   0  0  0  0  0  4           0  0  0
  1  9  1  0     0  0
  2 10  2  0     0  0
  3 11  2  0     0  0
  4 10  1  0     0  0
  4 12  1  0     0  0
  4 23  1  0     0  0
  5 11  1  0     0  0
  5 13  1  0     0  0
  5 24  1  0     0  0
  6 10  1  0     0  0
  6 14  1  0     0  0
  7 11  1  0     0  0
  7 15  1  0     0  0
  8 25  1  0     0  0
  8 26  1  0     0  0
  8 27  1  0     0  0
  9 16  2  0     0  0
  9 17  1  0     0  0
 12 14  2  0     0  0
 12 18  1  0     0  0
 13 15  2  0     0  0
 13 19  1  0     0  0
 14 16  1  0     0  0
 15 20  1  0     0  0
 17 18  2  0     0  0
 19 21  2  0     0  0
 20 22  2  0     0  0
 21 22  1  0     0  0
 23 28  1  0     0  0
 23 29  1  0     0  0
 24 30  1  0     0  0
 25 28  1  0     0  0
 26 29  1  0     0  0
 27 30  1  0     0  0
M  END
> <standard_type>
pIC50

> <# Confs.>
25

> <canonical_smiles>
O=C1N(CCCN2CCC(N3C(C=CC(Cl)=C4)=C4NC3=O)CC2)C5=C(C=CC=C5)N1

> <standard_relation>
=

> <Publication_ID>
nan

> <predicted_activity_value>
nan

> <actual_activity_value>
0.790484985457369

> <Compound>
Domperidone

> <standard_units>
uM

> hash
8190867388067327349

$$$$
17
XXILIB    08252103503D 0   0.00000     0.00000

 30 34  0     1  0            999 V2000
   -6.0263    4.6225    8.1662 Cl  0  0  0  0  0  1           0  0  0
   -1.9396   -1.0652    5.6913 O   0  0  0  0  0  2           0  0  0
    4.1238   -2.3219   -1.3445 O   0  0  0  0  0  2           0  0  0
   -2.7264    1.0405    4.9014 N   0  0  2  0  0  3           0  0  0
    3.6184   -1.1582    0.6687 N   0  0  1  0  0  3           0  0  0
   -3.2721    0.3743    7.0062 N   0  0  0  0  0  3           0  0  0
    5.7915   -1.3971    0.0526 N   0  0  0  0  0  3           0  0  0
   -0.5680   -0.0000    1.3507 N   0  0  2  0  0  3           0  0  0
   -5.0606    3.6145    7.1542 C   0  0  0  0  0  4           0  0  0
   -2.5610   -0.0220    5.8406 C   0  0  0  0  0  4           0  0  0
    4.4600   -1.7087   -0.3410 C   0  0  0  0  0  4           0  0  0
   -3.5154    2.0453    5.4944 C   0  0  0  0  0  4           0  0  0
    4.4213   -0.5236    1.6312 C   0  0  0  0  0  4           0  0  0
   -3.8444    1.6259    6.7831 C   0  0  0  0  0  4           0  0  0
    5.7521   -0.6785    1.2473 C   0  0  0  0  0  4           0  0  0
   -4.6147    2.3828    7.6392 C   0  0  0  0  0  4           0  0  0
   -4.7356    4.0522    5.8536 C   0  0  0  0  0  4           0  0  0
   -3.9521    3.2604    5.0062 C   0  0  0  0  0  4           0  0  0
    4.0800    0.1577    2.7814 C   0  0  0  0  0  4           0  0  0
    6.7993   -0.1702    1.9841 C   0  0  0  0  0  4           0  0  0
    5.1264    0.6828    3.5475 C   0  0  0  0  0  4           0  0  0
    6.4713    0.5203    3.1537 C   0  0  0  0  0  4           0  0  0
   -2.1762    1.0718    3.5617 C   0  0  2  0  0  4           0  0  0
    2.1685   -1.2001    0.6929 C   0  0  0  0  0  4           0  0  0
   -2.0385   -0.0000    1.2797 C   0  0  0  0  0  4           0  0  0
   -0.0841    1.1448    2.1408 C   0  0  0  0  0  4           0  0  0
   -0.0000    0.0000    0.0000 C   0  0  0  0  0  4           0  0  0
   -2.6626   -0.0818    2.6749 C   0  0  0  0  0  4           0  0  0
   -0.6421    1.1164    3.5662 C   0  0  0  0  0  4           0  0  0
    1.5282    0.0000   -0.0000 C   0  0  0  0  0  4           0  0  0
  1  9  1  0     0  0
  2 10  2  0     0  0
  3 11  2  0     0  0
  4 10  1  0     0  0
  4 12  1  0     0  0
  4 23  1  0     0  0
  5 11  1  0     0  0
  5 13  1  0     0  0
  5 24  1  0     0  0
  6 10  1  0     0  0
  6 14  1  0     0  0
  7 11  1  0     0  0
  7 15  1  0     0  0
  8 25  1  0     0  0
  8 26  1  0     0  0
  8 27  1  0     0  0
  9 16  2  0     0  0
  9 17  1  0     0  0
 12 14  2  0     0  0
 12 18  1  0     0  0
 13 15  2  0     0  0
 13 19  1  0     0  0
 14 16  1  0     0  0
 15 20  1  0     0  0
 17 18  2  0     0  0
 19 21  2  0     0  0
 20 22  2  0     0  0
 21 22  1  0     0  0
 23 28  1  0     0  0
 23 29  1  0     0  0
 24 30  1  0     0  0
 25 28  1  0     0  0
 26 29  1  0     0  0
 27 30  1  0     0  0
M  END
> <standard_type>
pIC50

> <# Confs.>
25

> <canonical_smiles>
O=C1N(CCCN2CCC(N3C(C=CC(Cl)=C4)=C4NC3=O)CC2)C5=C(C=CC=C5)N1

> <standard_relation>
=

> <Publication_ID>
nan

> <predicted_activity_value>
nan

> <actual_activity_value>
0.790484985457369

> <Compound>
Domperidone

> <standard_units>
uM

> hash
8190867388067327349

$$$$
17
XXILIB    08252103503D 0   0.00000     0.00000

 30 34  0     1  0            999 V2000
   -2.1455    2.4295    9.5932 Cl  0  0  0  0  0  1           0  0  0
   -4.1079   -2.9802    4.8963 O   0  0  0  0  0  2           0  0  0
    4.1226    2.2907   -1.3625 O   0  0  0  0  0  2           0  0  0
   -2.7093   -1.0513    4.9086 N   0  0  2  0  0  3           0  0  0
    3.6184    1.1582    0.6687 N   0  0  1  0  0  3           0  0  0
   -3.8853   -1.5771    6.7827 N   0  0  0  0  0  3           0  0  0
    5.7934    1.4467    0.0812 N   0  0  0  0  0  3           0  0  0
   -0.5680   -0.0000    1.3507 N   0  0  2  0  0  3           0  0  0
   -2.2688    1.4481    8.1810 C   0  0  0  0  0  4           0  0  0
   -3.6287   -2.0000    5.4497 C   0  0  0  0  0  4           0  0  0
    4.4600    1.7087   -0.3410 C   0  0  0  0  0  4           0  0  0
   -2.4244   -0.0883    5.8962 C   0  0  0  0  0  4           0  0  0
    4.4241    0.5955    1.6727 C   0  0  0  0  0  4           0  0  0
   -3.1509   -0.4201    7.0393 C   0  0  0  0  0  4           0  0  0
    5.7558    0.7736    1.3022 C   0  0  0  0  0  4           0  0  0
   -3.0985    0.3245    8.1978 C   0  0  0  0  0  4           0  0  0
   -1.5277    1.7959    7.0327 C   0  0  0  0  0  4           0  0  0
   -1.6025    1.0205    5.8699 C   0  0  0  0  0  4           0  0  0
    4.0845   -0.0403    2.8491 C   0  0  0  0  0  4           0  0  0
    6.8054    0.3290    2.0758 C   0  0  0  0  0  4           0  0  0
    5.1334   -0.5018    3.6521 C   0  0  0  0  0  4           0  0  0
    6.4790   -0.3198    3.2695 C   0  0  0  0  0  4           0  0  0
   -2.1672   -1.0774    3.5654 C   0  0  2  0  0  4           0  0  0
    2.1685    1.2001    0.6929 C   0  0  0  0  0  4           0  0  0
   -0.1262   -1.1977    2.0839 C   0  0  0  0  0  4           0  0  0
   -2.0383    0.0792    1.3189 C   0  0  0  0  0  4           0  0  0
    0.0000    0.0000    0.0000 C   0  0  0  0  0  4           0  0  0
   -0.6374   -1.1866    3.5266 C   0  0  0  0  0  4           0  0  0
   -2.6265    0.1265    2.7316 C   0  0  0  0  0  4           0  0  0
    1.5282   -0.0000   -0.0000 C   0  0  0  0  0  4           0  0  0
  1  9  1  0     0  0
  2 10  2  0     0  0
  3 11  2  0     0  0
  4 10  1  0     0  0
  4 12  1  0     0  0
  4 23  1  0     0  0
  5 11  1  0     0  0
  5 13  1  0     0  0
  5 24  1  0     0  0
  6 10  1  0     0  0
  6 14  1  0     0  0
  7 11  1  0     0  0
  7 15  1  0     0  0
  8 25  1  0     0  0
  8 26  1  0     0  0
  8 27  1  0     0  0
  9 16  2  0     0  0
  9 17  1  0     0  0
 12 14  2  0     0  0
 12 18  1  0     0  0
 13 15  2  0     0  0
 13 19  1  0     0  0
 14 16  1  0     0  0
 15 20  1  0     0  0
 17 18  2  0     0  0
 19 21  2  0     0  0
 20 22  2  0     0  0
 21 22  1  0     0  0
 23 28  1  0     0  0
 23 29  1  0     0  0
 24 30  1  0     0  0
 25 28  1  0     0  0
 26 29  1  0     0  0
 27 30  1  0     0  0
M  END
> <standard_type>
pIC50

> <# Confs.>
25

> <canonical_smiles>
O=C1N(CCCN2CCC(N3C(C=CC(Cl)=C4)=C4NC3=O)CC2)C5=C(C=CC=C5)N1

> <standard_relation>
=

> <Publication_ID>
nan

> <predicted_activity_value>
nan

> <actual_activity_value>
0.790484985457369

> <Compound>
Domperidone

> <standard_units>
uM

> hash
8190867388067327349

$$$$
17
XXILIB    08252103503D 0   0.00000     0.00000

 30 34  0     1  0            999 V2000
   -2.6136   -2.7227    9.3963 Cl  0  0  0  0  0  1           0  0  0
   -3.8757    3.1256    4.9940 O   0  0  0  0  0  2           0  0  0
    4.1238    2.3253   -1.3386 O   0  0  0  0  0  2           0  0  0
   -2.7264    1.0405    4.9014 N   0  0  2  0  0  3           0  0  0
    3.6184    0.0000   -1.3374 N   0  0  1  0  0  3           0  0  0
   -3.8279    1.6131    6.8069 N   0  0  0  0  0  3           0  0  0
    5.7915    0.6530   -1.2362 N   0  0  0  0  0  3           0  0  0
   -0.5680   -0.0000    1.3507 N   0  0  2  0  0  3           0  0  0
   -2.6062   -1.6594    8.0391 C   0  0  0  0  0  4           0  0  0
   -3.5214    2.0672    5.4949 C   0  0  0  0  0  4           0  0  0
    4.4600    1.1497   -1.3093 C   0  0  0  0  0  4           0  0  0
   -2.5653    0.0001    5.8369 C   0  0  0  0  0  4           0  0  0
    4.4213   -1.1509   -1.2690 C   0  0  0  0  0  4           0  0  0
   -3.2434    0.3622    7.0004 C   0  0  0  0  0  4           0  0  0
    5.7521   -0.7409   -1.2112 C   0  0  0  0  0  4           0  0  0
   -3.2844   -0.4409    8.1196 C   0  0  0  0  0  4           0  0  0
   -1.9166   -2.0394    6.8692 C   0  0  0  0  0  4           0  0  0
   -1.8916   -1.2016    5.7483 C   0  0  0  0  0  4           0  0  0
    4.0800   -2.4876   -1.2542 C   0  0  0  0  0  4           0  0  0
    6.7993   -1.6332   -1.1394 C   0  0  0  0  0  4           0  0  0
    5.1264   -3.4137   -1.1824 C   0  0  0  0  0  4           0  0  0
    6.4713   -2.9913   -1.1263 C   0  0  0  0  0  4           0  0  0
   -2.1762    1.0718    3.5617 C   0  0  2  0  0  4           0  0  0
    2.1685    0.0000   -1.3858 C   0  0  0  0  0  4           0  0  0
   -2.0385   -0.0000    1.2797 C   0  0  0  0  0  4           0  0  0
   -0.0841    1.1448    2.1408 C   0  0  0  0  0  4           0  0  0
   -0.0000    0.0000    0.0000 C   0  0  0  0  0  4           0  0  0
   -2.6626   -0.0818    2.6749 C   0  0  0  0  0  4           0  0  0
   -0.6421    1.1164    3.5662 C   0  0  0  0  0  4           0  0  0
    1.5282    0.0000    0.0000 C   0  0  0  0  0  4           0  0  0
  1  9  1  0     0  0
  2 10  2  0     0  0
  3 11  2  0     0  0
  4 10  1  0     0  0
  4 12  1  0     0  0
  4 23  1  0     0  0
  5 11  1  0     0  0
  5 13  1  0     0  0
  5 24  1  0     0  0
  6 10  1  0     0  0
  6 14  1  0     0  0
  7 11  1  0     0  0
  7 15  1  0     0  0
  8 25  1  0     0  0
  8 26  1  0     0  0
  8 27  1  0     0  0
  9 16  2  0     0  0
  9 17  1  0     0  0
 12 14  2  0     0  0
 12 18  1  0     0  0
 13 15  2  0     0  0
 13 19  1  0     0  0
 14 16  1  0     0  0
 15 20  1  0     0  0
 17 18  2  0     0  0
 19 21  2  0     0  0
 20 22  2  0     0  0
 21 22  1  0     0  0
 23 28  1  0     0  0
 23 29  1  0     0  0
 24 30  1  0     0  0
 25 28  1  0     0  0
 26 29  1  0     0  0
 27 30  1  0     0  0
M  END
> <standard_type>
pIC50

> <# Confs.>
25

> <canonical_smiles>
O=C1N(CCCN2CCC(N3C(C=CC(Cl)=C4)=C4NC3=O)CC2)C5=C(C=CC=C5)N1

> <standard_relation>
=

> <Publication_ID>
nan

> <predicted_activity_value>
nan

> <actual_activity_value>
0.790484985457369

> <Compound>
Domperidone

> <standard_units>
uM

> hash
8190867388067327349

$$$$
17
XXILIB    08252103503D 0   0.00000     0.00000

 30 34  0     1  0            999 V2000
   -2.6136   -2.7227    9.3963 Cl  0  0  0  0  0  1           0  0  0
   -3.8757    3.1256    4.9940 O   0  0  0  0  0  2           0  0  0
   -0.1685   -0.4038   -3.2853 O   0  0  0  0  0  2           0  0  0
   -2.7264    1.0405    4.9014 N   0  0  2  0  0  3           0  0  0
    1.7986   -1.1574   -2.1783 N   0  0  1  0  0  3           0  0  0
   -3.8279    1.6131    6.8069 N   0  0  0  0  0  3           0  0  0
    0.7467   -2.5568   -3.6254 N   0  0  0  0  0  3           0  0  0
   -0.5680   -0.0000    1.3507 N   0  0  2  0  0  3           0  0  0
   -2.6062   -1.6594    8.0391 C   0  0  0  0  0  4           0  0  0
   -3.5214    2.0672    5.4949 C   0  0  0  0  0  4           0  0  0
    0.6800   -1.2544   -3.0560 C   0  0  0  0  0  4           0  0  0
   -2.5653    0.0001    5.8369 C   0  0  0  0  0  4           0  0  0
    2.5215   -2.3609   -2.2312 C   0  0  0  0  0  4           0  0  0
   -3.2434    0.3622    7.0004 C   0  0  0  0  0  4           0  0  0
    1.8671   -3.2141   -3.1179 C   0  0  0  0  0  4           0  0  0
   -3.2844   -0.4409    8.1196 C   0  0  0  0  0  4           0  0  0
   -1.9166   -2.0394    6.8692 C   0  0  0  0  0  4           0  0  0
   -1.8916   -1.2016    5.7483 C   0  0  0  0  0  4           0  0  0
    3.6740   -2.7487   -1.5793 C   0  0  0  0  0  4           0  0  0
    2.3218   -4.4848   -3.3946 C   0  0  0  0  0  4           0  0  0
    4.1555   -4.0356   -1.8433 C   0  0  0  0  0  4           0  0  0
    3.4865   -4.8946   -2.7405 C   0  0  0  0  0  4           0  0  0
   -2.1762    1.0718    3.5617 C   0  0  2  0  0  4           0  0  0
    2.1685    0.0000   -1.3858 C   0  0  0  0  0  4           0  0  0
   -2.0385   -0.0000    1.2797 C   0  0  0  0  0  4           0  0  0
   -0.0841    1.1448    2.1408 C   0  0  0  0  0  4           0  0  0
   -0.0000    0.0000    0.0000 C   0  0  0  0  0  4           0  0  0
   -2.6626   -0.0818    2.6749 C   0  0  0  0  0  4           0  0  0
   -0.6421    1.1164    3.5662 C   0  0  0  0  0  4           0  0  0
    1.5282   -0.0000   -0.0000 C   0  0  0  0  0  4           0  0  0
  1  9  1  0     0  0
  2 10  2  0     0  0
  3 11  2  0     0  0
  4 10  1  0     0  0
  4 12  1  0     0  0
  4 23  1  0     0  0
  5 11  1  0     0  0
  5 13  1  0     0  0
  5 24  1  0     0  0
  6 10  1  0     0  0
  6 14  1  0     0  0
  7 11  1  0     0  0
  7 15  1  0     0  0
  8 25  1  0     0  0
  8 26  1  0     0  0
  8 27  1  0     0  0
  9 16  2  0     0  0
  9 17  1  0     0  0
 12 14  2  0     0  0
 12 18  1  0     0  0
 13 15  2  0     0  0
 13 19  1  0     0  0
 14 16  1  0     0  0
 15 20  1  0     0  0
 17 18  2  0     0  0
 19 21  2  0     0  0
 20 22  2  0     0  0
 21 22  1  0     0  0
 23 28  1  0     0  0
 23 29  1  0     0  0
 24 30  1  0     0  0
 25 28  1  0     0  0
 26 29  1  0     0  0
 27 30  1  0     0  0
M  END
> <standard_type>
pIC50

> <# Confs.>
25

> <canonical_smiles>
O=C1N(CCCN2CCC(N3C(C=CC(Cl)=C4)=C4NC3=O)CC2)C5=C(C=CC=C5)N1

> <standard_relation>
=

> <Publication_ID>
nan

> <predicted_activity_value>
nan

> <actual_activity_value>
0.790484985457369

> <Compound>
Domperidone

> <standard_units>
uM

> hash
8190867388067327349

$$$$
17
XXILIB    08252103503D 0   0.00000     0.00000

 30 34  0     1  0            999 V2000
   -2.1455    2.4295    9.5932 Cl  0  0  0  0  0  1           0  0  0
   -4.1079   -2.9802    4.8963 O   0  0  0  0  0  2           0  0  0
   -0.1481    0.3916   -3.3125 O   0  0  0  0  0  2           0  0  0
   -2.7093   -1.0513    4.9086 N   0  0  2  0  0  3           0  0  0
    1.7986    1.1574   -2.1783 N   0  0  1  0  0  3           0  0  0
   -3.8853   -1.5771    6.7827 N   0  0  0  0  0  3           0  0  0
    0.7144    2.5761   -3.5822 N   0  0  0  0  0  3           0  0  0
   -0.5680   -0.0000    1.3507 N   0  0  2  0  0  3           0  0  0
   -2.2688    1.4481    8.1810 C   0  0  0  0  0  4           0  0  0
   -3.6287   -2.0000    5.4497 C   0  0  0  0  0  4           0  0  0
    0.6800    1.2544   -3.0560 C   0  0  0  0  0  4           0  0  0
   -2.4244   -0.0883    5.8962 C   0  0  0  0  0  4           0  0  0
    2.4747    2.3889   -2.1685 C   0  0  0  0  0  4           0  0  0
   -3.1509   -0.4201    7.0393 C   0  0  0  0  0  4           0  0  0
    1.8052    3.2512   -3.0350 C   0  0  0  0  0  4           0  0  0
   -3.0985    0.3245    8.1978 C   0  0  0  0  0  4           0  0  0
   -1.5277    1.7959    7.0327 C   0  0  0  0  0  4           0  0  0
   -1.6025    1.0205    5.8699 C   0  0  0  0  0  4           0  0  0
    3.5977    2.7943   -1.4770 C   0  0  0  0  0  4           0  0  0
    2.2185    4.5466   -3.2561 C   0  0  0  0  0  4           0  0  0
    4.0377    4.1061   -1.6854 C   0  0  0  0  0  4           0  0  0
    3.3561    4.9726   -2.5657 C   0  0  0  0  0  4           0  0  0
   -2.1672   -1.0774    3.5654 C   0  0  2  0  0  4           0  0  0
    2.1685    0.0000   -1.3858 C   0  0  0  0  0  4           0  0  0
   -0.1262   -1.1977    2.0839 C   0  0  0  0  0  4           0  0  0
   -2.0383    0.0792    1.3189 C   0  0  0  0  0  4           0  0  0
    0.0000    0.0000    0.0000 C   0  0  0  0  0  4           0  0  0
   -0.6374   -1.1866    3.5266 C   0  0  0  0  0  4           0  0  0
   -2.6265    0.1265    2.7316 C   0  0  0  0  0  4           0  0  0
    1.5282    0.0000    0.0000 C   0  0  0  0  0  4           0  0  0
  1  9  1  0     0  0
  2 10  2  0     0  0
  3 11  2  0     0  0
  4 10  1  0     0  0
  4 12  1  0     0  0
  4 23  1  0     0  0
  5 11  1  0     0  0
  5 13  1  0     0  0
  5 24  1  0     0  0
  6 10  1  0     0  0
  6 14  1  0     0  0
  7 11  1  0     0  0
  7 15  1  0     0  0
  8 25  1  0     0  0
  8 26  1  0     0  0
  8 27  1  0     0  0
  9 16  2  0     0  0
  9 17  1  0     0  0
 12 14  2  0     0  0
 12 18  1  0     0  0
 13 15  2  0     0  0
 13 19  1  0     0  0
 14 16  1  0     0  0
 15 20  1  0     0  0
 17 18  2  0     0  0
 19 21  2  0     0  0
 20 22  2  0     0  0
 21 22  1  0     0  0
 23 28  1  0     0  0
 23 29  1  0     0  0
 24 30  1  0     0  0
 25 28  1  0     0  0
 26 29  1  0     0  0
 27 30  1  0     0  0
M  END
> <standard_type>
pIC50

> <# Confs.>
25

> <canonical_smiles>
O=C1N(CCCN2CCC(N3C(C=CC(Cl)=C4)=C4NC3=O)CC2)C5=C(C=CC=C5)N1

> <standard_relation>
=

> <Publication_ID>
nan

> <predicted_activity_value>
nan

> <actual_activity_value>
0.790484985457369

> <Compound>
Domperidone

> <standard_units>
uM

> hash
8190867388067327349

$$$$
17
XXILIB    08252103503D 0   0.00000     0.00000

 30 34  0     1  0            999 V2000
   -6.0263    4.6225    8.1662 Cl  0  0  0  0  0  1           0  0  0
   -1.9396   -1.0652    5.6913 O   0  0  0  0  0  2           0  0  0
   -0.1481    0.3916   -3.3125 O   0  0  0  0  0  2           0  0  0
   -2.7264    1.0405    4.9014 N   0  0  2  0  0  3           0  0  0
    1.7986    1.1574   -2.1783 N   0  0  1  0  0  3           0  0  0
   -3.2721    0.3743    7.0062 N   0  0  0  0  0  3           0  0  0
    0.7144    2.5761   -3.5822 N   0  0  0  0  0  3           0  0  0
   -0.5680   -0.0000    1.3507 N   0  0  2  0  0  3           0  0  0
   -5.0606    3.6145    7.1542 C   0  0  0  0  0  4           0  0  0
   -2.5610   -0.0220    5.8406 C   0  0  0  0  0  4           0  0  0
    0.6800    1.2544   -3.0560 C   0  0  0  0  0  4           0  0  0
   -3.5154    2.0453    5.4944 C   0  0  0  0  0  4           0  0  0
    2.4747    2.3889   -2.1685 C   0  0  0  0  0  4           0  0  0
   -3.8444    1.6259    6.7831 C   0  0  0  0  0  4           0  0  0
    1.8052    3.2512   -3.0350 C   0  0  0  0  0  4           0  0  0
   -4.6147    2.3828    7.6392 C   0  0  0  0  0  4           0  0  0
   -4.7356    4.0522    5.8536 C   0  0  0  0  0  4           0  0  0
   -3.9521    3.2604    5.0062 C   0  0  0  0  0  4           0  0  0
    3.5977    2.7943   -1.4770 C   0  0  0  0  0  4           0  0  0
    2.2185    4.5466   -3.2561 C   0  0  0  0  0  4           0  0  0
    4.0377    4.1061   -1.6854 C   0  0  0  0  0  4           0  0  0
    3.3561    4.9726   -2.5657 C   0  0  0  0  0  4           0  0  0
   -2.1762    1.0718    3.5617 C   0  0  2  0  0  4           0  0  0
    2.1685    0.0000   -1.3858 C   0  0  0  0  0  4           0  0  0
   -2.0385   -0.0000    1.2797 C   0  0  0  0  0  4           0  0  0
   -0.0841    1.1448    2.1408 C   0  0  0  0  0  4           0  0  0
   -0.0000    0.0000    0.0000 C   0  0  0  0  0  4           0  0  0
   -2.6626   -0.0818    2.6749 C   0  0  0  0  0  4           0  0  0
   -0.6421    1.1164    3.5662 C   0  0  0  0  0  4           0  0  0
    1.5282    0.0000    0.0000 C   0  0  0  0  0  4           0  0  0
  1  9  1  0     0  0
  2 10  2  0     0  0
  3 11  2  0     0  0
  4 10  1  0     0  0
  4 12  1  0     0  0
  4 23  1  0     0  0
  5 11  1  0     0  0
  5 13  1  0     0  0
  5 24  1  0     0  0
  6 10  1  0     0  0
  6 14  1  0     0  0
  7 11  1  0     0  0
  7 15  1  0     0  0
  8 25  1  0     0  0
  8 26  1  0     0  0
  8 27  1  0     0  0
  9 16  2  0     0  0
  9 17  1  0     0  0
 12 14  2  0     0  0
 12 18  1  0     0  0
 13 15  2  0     0  0
 13 19  1  0     0  0
 14 16  1  0     0  0
 15 20  1  0     0  0
 17 18  2  0     0  0
 19 21  2  0     0  0
 20 22  2  0     0  0
 21 22  1  0     0  0
 23 28  1  0     0  0
 23 29  1  0     0  0
 24 30  1  0     0  0
 25 28  1  0     0  0
 26 29  1  0     0  0
 27 30  1  0     0  0
M  END
> <standard_type>
pIC50

> <# Confs.>
25

> <canonical_smiles>
O=C1N(CCCN2CCC(N3C(C=CC(Cl)=C4)=C4NC3=O)CC2)C5=C(C=CC=C5)N1

> <standard_relation>
=

> <Publication_ID>
nan

> <predicted_activity_value>
nan

> <actual_activity_value>
0.790484985457369

> <Compound>
Domperidone

> <standard_units>
uM

> hash
8190867388067327349

$$$$
17
XXILIB    08252103503D 0   0.00000     0.00000

 30 34  0     1  0            999 V2000
   -6.4128   -4.3805    8.0037 Cl  0  0  0  0  0  1           0  0  0
   -1.6677    0.8949    5.8056 O   0  0  0  0  0  2           0  0  0
    4.1226    2.2907   -1.3625 O   0  0  0  0  0  2           0  0  0
   -2.7093   -1.0513    4.9086 N   0  0  2  0  0  3           0  0  0
    3.6184    1.1582    0.6687 N   0  0  1  0  0  3           0  0  0
   -3.1558   -0.4471    7.0551 N   0  0  0  0  0  3           0  0  0
    5.7934    1.4467    0.0812 N   0  0  0  0  0  3           0  0  0
   -0.5680   -0.0000    1.3507 N   0  0  2  0  0  3           0  0  0
   -5.3308   -3.4453    7.0405 C   0  0  0  0  0  4           0  0  0
   -2.4100   -0.0726    5.9041 C   0  0  0  0  0  4           0  0  0
    4.4600    1.7087   -0.3410 C   0  0  0  0  0  4           0  0  0
   -3.6126   -1.9843    5.4535 C   0  0  0  0  0  4           0  0  0
    4.4241    0.5955    1.6727 C   0  0  0  0  0  4           0  0  0
   -3.8782   -1.6047    6.7688 C   0  0  0  0  0  4           0  0  0
    5.7558    0.7736    1.3022 C   0  0  0  0  0  4           0  0  0
   -4.7299   -2.3107    7.5907 C   0  0  0  0  0  4           0  0  0
   -5.0723   -3.8414    5.7120 C   0  0  0  0  0  4           0  0  0
   -4.2011   -3.1045    4.9015 C   0  0  0  0  0  4           0  0  0
    4.0845   -0.0403    2.8491 C   0  0  0  0  0  4           0  0  0
    6.8054    0.3290    2.0758 C   0  0  0  0  0  4           0  0  0
    5.1334   -0.5018    3.6521 C   0  0  0  0  0  4           0  0  0
    6.4790   -0.3198    3.2695 C   0  0  0  0  0  4           0  0  0
   -2.1672   -1.0774    3.5654 C   0  0  2  0  0  4           0  0  0
    2.1685    1.2001    0.6929 C   0  0  0  0  0  4           0  0  0
   -0.1262   -1.1977    2.0839 C   0  0  0  0  0  4           0  0  0
   -2.0383    0.0792    1.3189 C   0  0  0  0  0  4           0  0  0
    0.0000    0.0000    0.0000 C   0  0  0  0  0  4           0  0  0
   -0.6374   -1.1866    3.5266 C   0  0  0  0  0  4           0  0  0
   -2.6265    0.1265    2.7316 C   0  0  0  0  0  4           0  0  0
    1.5282   -0.0000   -0.0000 C   0  0  0  0  0  4           0  0  0
  1  9  1  0     0  0
  2 10  2  0     0  0
  3 11  2  0     0  0
  4 10  1  0     0  0
  4 12  1  0     0  0
  4 23  1  0     0  0
  5 11  1  0     0  0
  5 13  1  0     0  0
  5 24  1  0     0  0
  6 10  1  0     0  0
  6 14  1  0     0  0
  7 11  1  0     0  0
  7 15  1  0     0  0
  8 25  1  0     0  0
  8 26  1  0     0  0
  8 27  1  0     0  0
  9 16  2  0     0  0
  9 17  1  0     0  0
 12 14  2  0     0  0
 12 18  1  0     0  0
 13 15  2  0     0  0
 13 19  1  0     0  0
 14 16  1  0     0  0
 15 20  1  0     0  0
 17 18  2  0     0  0
 19 21  2  0     0  0
 20 22  2  0     0  0
 21 22  1  0     0  0
 23 28  1  0     0  0
 23 29  1  0     0  0
 24 30  1  0     0  0
 25 28  1  0     0  0
 26 29  1  0     0  0
 27 30  1  0     0  0
M  END
> <standard_type>
pIC50

> <# Confs.>
25

> <canonical_smiles>
O=C1N(CCCN2CCC(N3C(C=CC(Cl)=C4)=C4NC3=O)CC2)C5=C(C=CC=C5)N1

> <standard_relation>
=

> <Publication_ID>
nan

> <predicted_activity_value>
nan

> <actual_activity_value>
0.790484985457369

> <Compound>
Domperidone

> <standard_units>
uM

> hash
8190867388067327349

$$$$
17
XXILIB    08252103503D 0   0.00000     0.00000

 30 34  0     1  0            999 V2000
   -2.1455    2.4295    9.5932 Cl  0  0  0  0  0  1           0  0  0
   -4.1079   -2.9802    4.8963 O   0  0  0  0  0  2           0  0  0
   -0.1685   -0.4038   -3.2853 O   0  0  0  0  0  2           0  0  0
   -2.7093   -1.0513    4.9086 N   0  0  2  0  0  3           0  0  0
    1.7986   -1.1574   -2.1783 N   0  0  1  0  0  3           0  0  0
   -3.8853   -1.5771    6.7827 N   0  0  0  0  0  3           0  0  0
    0.7467   -2.5568   -3.6254 N   0  0  0  0  0  3           0  0  0
   -0.5680   -0.0000    1.3507 N   0  0  2  0  0  3           0  0  0
   -2.2688    1.4481    8.1810 C   0  0  0  0  0  4           0  0  0
   -3.6287   -2.0000    5.4497 C   0  0  0  0  0  4           0  0  0
    0.6800   -1.2544   -3.0560 C   0  0  0  0  0  4           0  0  0
   -2.4244   -0.0883    5.8962 C   0  0  0  0  0  4           0  0  0
    2.5215   -2.3609   -2.2312 C   0  0  0  0  0  4           0  0  0
   -3.1509   -0.4201    7.0393 C   0  0  0  0  0  4           0  0  0
    1.8671   -3.2141   -3.1179 C   0  0  0  0  0  4           0  0  0
   -3.0985    0.3245    8.1978 C   0  0  0  0  0  4           0  0  0
   -1.5277    1.7959    7.0327 C   0  0  0  0  0  4           0  0  0
   -1.6025    1.0205    5.8699 C   0  0  0  0  0  4           0  0  0
    3.6740   -2.7487   -1.5793 C   0  0  0  0  0  4           0  0  0
    2.3218   -4.4848   -3.3946 C   0  0  0  0  0  4           0  0  0
    4.1555   -4.0356   -1.8433 C   0  0  0  0  0  4           0  0  0
    3.4865   -4.8946   -2.7405 C   0  0  0  0  0  4           0  0  0
   -2.1672   -1.0774    3.5654 C   0  0  2  0  0  4           0  0  0
    2.1685    0.0000   -1.3858 C   0  0  0  0  0  4           0  0  0
   -0.1262   -1.1977    2.0839 C   0  0  0  0  0  4           0  0  0
   -2.0383    0.0792    1.3189 C   0  0  0  0  0  4           0  0  0
    0.0000    0.0000    0.0000 C   0  0  0  0  0  4           0  0  0
   -0.6374   -1.1866    3.5266 C   0  0  0  0  0  4           0  0  0
   -2.6265    0.1265    2.7316 C   0  0  0  0  0  4           0  0  0
    1.5282   -0.0000   -0.0000 C   0  0  0  0  0  4           0  0  0
  1  9  1  0     0  0
  2 10  2  0     0  0
  3 11  2  0     0  0
  4 10  1  0     0  0
  4 12  1  0     0  0
  4 23  1  0     0  0
  5 11  1  0     0  0
  5 13  1  0     0  0
  5 24  1  0     0  0
  6 10  1  0     0  0
  6 14  1  0     0  0
  7 11  1  0     0  0
  7 15  1  0     0  0
  8 25  1  0     0  0
  8 26  1  0     0  0
  8 27  1  0     0  0
  9 16  2  0     0  0
  9 17  1  0     0  0
 12 14  2  0     0  0
 12 18  1  0     0  0
 13 15  2  0     0  0
 13 19  1  0     0  0
 14 16  1  0     0  0
 15 20  1  0     0  0
 17 18  2  0     0  0
 19 21  2  0     0  0
 20 22  2  0     0  0
 21 22  1  0     0  0
 23 28  1  0     0  0
 23 29  1  0     0  0
 24 30  1  0     0  0
 25 28  1  0     0  0
 26 29  1  0     0  0
 27 30  1  0     0  0
M  END
> <standard_type>
pIC50

> <# Confs.>
25

> <canonical_smiles>
O=C1N(CCCN2CCC(N3C(C=CC(Cl)=C4)=C4NC3=O)CC2)C5=C(C=CC=C5)N1

> <standard_relation>
=

> <Publication_ID>
nan

> <predicted_activity_value>
nan

> <actual_activity_value>
0.790484985457369

> <Compound>
Domperidone

> <standard_units>
uM

> hash
8190867388067327349

$$$$
17
XXILIB    08252103503D 0   0.00000     0.00000

 30 34  0     1  0            999 V2000
   -6.0263    4.6225    8.1662 Cl  0  0  0  0  0  1           0  0  0
   -1.9396   -1.0652    5.6913 O   0  0  0  0  0  2           0  0  0
    4.1238    2.3253   -1.3386 O   0  0  0  0  0  2           0  0  0
   -2.7264    1.0405    4.9014 N   0  0  2  0  0  3           0  0  0
    3.6184    0.0000   -1.3374 N   0  0  1  0  0  3           0  0  0
   -3.2721    0.3743    7.0062 N   0  0  0  0  0  3           0  0  0
    5.7915    0.6530   -1.2362 N   0  0  0  0  0  3           0  0  0
   -0.5680   -0.0000    1.3507 N   0  0  2  0  0  3           0  0  0
   -5.0606    3.6145    7.1542 C   0  0  0  0  0  4           0  0  0
   -2.5610   -0.0220    5.8406 C   0  0  0  0  0  4           0  0  0
    4.4600    1.1497   -1.3093 C   0  0  0  0  0  4           0  0  0
   -3.5154    2.0453    5.4944 C   0  0  0  0  0  4           0  0  0
    4.4213   -1.1509   -1.2690 C   0  0  0  0  0  4           0  0  0
   -3.8444    1.6259    6.7831 C   0  0  0  0  0  4           0  0  0
    5.7521   -0.7409   -1.2112 C   0  0  0  0  0  4           0  0  0
   -4.6147    2.3828    7.6392 C   0  0  0  0  0  4           0  0  0
   -4.7356    4.0522    5.8536 C   0  0  0  0  0  4           0  0  0
   -3.9521    3.2604    5.0062 C   0  0  0  0  0  4           0  0  0
    4.0800   -2.4876   -1.2542 C   0  0  0  0  0  4           0  0  0
    6.7993   -1.6332   -1.1394 C   0  0  0  0  0  4           0  0  0
    5.1264   -3.4137   -1.1824 C   0  0  0  0  0  4           0  0  0
    6.4713   -2.9913   -1.1263 C   0  0  0  0  0  4           0  0  0
   -2.1762    1.0718    3.5617 C   0  0  2  0  0  4           0  0  0
    2.1685    0.0000   -1.3858 C   0  0  0  0  0  4           0  0  0
   -2.0385   -0.0000    1.2797 C   0  0  0  0  0  4           0  0  0
   -0.0841    1.1448    2.1408 C   0  0  0  0  0  4           0  0  0
   -0.0000    0.0000    0.0000 C   0  0  0  0  0  4           0  0  0
   -2.6626   -0.0818    2.6749 C   0  0  0  0  0  4           0  0  0
   -0.6421    1.1164    3.5662 C   0  0  0  0  0  4           0  0  0
    1.5282    0.0000    0.0000 C   0  0  0  0  0  4           0  0  0
  1  9  1  0     0  0
  2 10  2  0     0  0
  3 11  2  0     0  0
  4 10  1  0     0  0
  4 12  1  0     0  0
  4 23  1  0     0  0
  5 11  1  0     0  0
  5 13  1  0     0  0
  5 24  1  0     0  0
  6 10  1  0     0  0
  6 14  1  0     0  0
  7 11  1  0     0  0
  7 15  1  0     0  0
  8 25  1  0     0  0
  8 26  1  0     0  0
  8 27  1  0     0  0
  9 16  2  0     0  0
  9 17  1  0     0  0
 12 14  2  0     0  0
 12 18  1  0     0  0
 13 15  2  0     0  0
 13 19  1  0     0  0
 14 16  1  0     0  0
 15 20  1  0     0  0
 17 18  2  0     0  0
 19 21  2  0     0  0
 20 22  2  0     0  0
 21 22  1  0     0  0
 23 28  1  0     0  0
 23 29  1  0     0  0
 24 30  1  0     0  0
 25 28  1  0     0  0
 26 29  1  0     0  0
 27 30  1  0     0  0
M  END
> <standard_type>
pIC50

> <# Confs.>
25

> <canonical_smiles>
O=C1N(CCCN2CCC(N3C(C=CC(Cl)=C4)=C4NC3=O)CC2)C5=C(C=CC=C5)N1

> <standard_relation>
=

> <Publication_ID>
nan

> <predicted_activity_value>
nan

> <actual_activity_value>
0.790484985457369

> <Compound>
Domperidone

> <standard_units>
uM

> hash
8190867388067327349

$$$$
17
XXILIB    08252103503D 0   0.00000     0.00000

 30 34  0     1  0            999 V2000
   -6.0263    4.6225    8.1662 Cl  0  0  0  0  0  1           0  0  0
   -1.9396   -1.0652    5.6913 O   0  0  0  0  0  2           0  0  0
    4.1226    0.0347    2.6651 O   0  0  0  0  0  2           0  0  0
   -2.7264    1.0405    4.9014 N   0  0  2  0  0  3           0  0  0
    3.6184   -1.1582    0.6687 N   0  0  1  0  0  3           0  0  0
   -3.2721    0.3743    7.0062 N   0  0  0  0  0  3           0  0  0
    5.7934   -0.7937    1.2122 N   0  0  0  0  0  3           0  0  0
   -0.5680   -0.0000    1.3507 N   0  0  2  0  0  3           0  0  0
   -5.0606    3.6145    7.1542 C   0  0  0  0  0  4           0  0  0
   -2.5610   -0.0220    5.8406 C   0  0  0  0  0  4           0  0  0
    4.4600   -0.5590    1.6503 C   0  0  0  0  0  4           0  0  0
   -3.5154    2.0453    5.4944 C   0  0  0  0  0  4           0  0  0
    4.4241   -1.7464   -0.3206 C   0  0  0  0  0  4           0  0  0
   -3.8444    1.6259    6.7831 C   0  0  0  0  0  4           0  0  0
    5.7558   -1.5145    0.0189 C   0  0  0  0  0  4           0  0  0
   -4.6147    2.3828    7.6392 C   0  0  0  0  0  4           0  0  0
   -4.7356    4.0522    5.8536 C   0  0  0  0  0  4           0  0  0
   -3.9521    3.2604    5.0062 C   0  0  0  0  0  4           0  0  0
    4.0845   -2.4473   -1.4595 C   0  0  0  0  0  4           0  0  0
    6.8054   -1.9622   -0.7530 C   0  0  0  0  0  4           0  0  0
    5.1334   -2.9119   -2.2606 C   0  0  0  0  0  4           0  0  0
    6.4790   -2.6716   -1.9117 C   0  0  0  0  0  4           0  0  0
   -2.1762    1.0718    3.5617 C   0  0  2  0  0  4           0  0  0
    2.1685   -1.2001    0.6929 C   0  0  0  0  0  4           0  0  0
   -2.0385   -0.0000    1.2797 C   0  0  0  0  0  4           0  0  0
   -0.0841    1.1448    2.1408 C   0  0  0  0  0  4           0  0  0
   -0.0000    0.0000    0.0000 C   0  0  0  0  0  4           0  0  0
   -2.6626   -0.0818    2.6749 C   0  0  0  0  0  4           0  0  0
   -0.6421    1.1164    3.5662 C   0  0  0  0  0  4           0  0  0
    1.5282    0.0000   -0.0000 C   0  0  0  0  0  4           0  0  0
  1  9  1  0     0  0
  2 10  2  0     0  0
  3 11  2  0     0  0
  4 10  1  0     0  0
  4 12  1  0     0  0
  4 23  1  0     0  0
  5 11  1  0     0  0
  5 13  1  0     0  0
  5 24  1  0     0  0
  6 10  1  0     0  0
  6 14  1  0     0  0
  7 11  1  0     0  0
  7 15  1  0     0  0
  8 25  1  0     0  0
  8 26  1  0     0  0
  8 27  1  0     0  0
  9 16  2  0     0  0
  9 17  1  0     0  0
 12 14  2  0     0  0
 12 18  1  0     0  0
 13 15  2  0     0  0
 13 19  1  0     0  0
 14 16  1  0     0  0
 15 20  1  0     0  0
 17 18  2  0     0  0
 19 21  2  0     0  0
 20 22  2  0     0  0
 21 22  1  0     0  0
 23 28  1  0     0  0
 23 29  1  0     0  0
 24 30  1  0     0  0
 25 28  1  0     0  0
 26 29  1  0     0  0
 27 30  1  0     0  0
M  END
> <standard_type>
pIC50

> <# Confs.>
25

> <canonical_smiles>
O=C1N(CCCN2CCC(N3C(C=CC(Cl)=C4)=C4NC3=O)CC2)C5=C(C=CC=C5)N1

> <standard_relation>
=

> <Publication_ID>
nan

> <predicted_activity_value>
nan

> <actual_activity_value>
0.790484985457369

> <Compound>
Domperidone

> <standard_units>
uM

> hash
8190867388067327349

$$$$
17
XXILIB    08252103503D 0   0.00000     0.00000

 30 34  0     1  0            999 V2000
   -2.1455    2.4295    9.5932 Cl  0  0  0  0  0  1           0  0  0
   -4.1079   -2.9802    4.8963 O   0  0  0  0  0  2           0  0  0
    4.1238    2.3253   -1.3386 O   0  0  0  0  0  2           0  0  0
   -2.7093   -1.0513    4.9086 N   0  0  2  0  0  3           0  0  0
    3.6184    0.0000   -1.3374 N   0  0  1  0  0  3           0  0  0
   -3.8853   -1.5771    6.7827 N   0  0  0  0  0  3           0  0  0
    5.7915    0.6530   -1.2362 N   0  0  0  0  0  3           0  0  0
   -0.5680   -0.0000    1.3507 N   0  0  2  0  0  3           0  0  0
   -2.2688    1.4481    8.1810 C   0  0  0  0  0  4           0  0  0
   -3.6287   -2.0000    5.4497 C   0  0  0  0  0  4           0  0  0
    4.4600    1.1497   -1.3093 C   0  0  0  0  0  4           0  0  0
   -2.4244   -0.0883    5.8962 C   0  0  0  0  0  4           0  0  0
    4.4213   -1.1509   -1.2690 C   0  0  0  0  0  4           0  0  0
   -3.1509   -0.4201    7.0393 C   0  0  0  0  0  4           0  0  0
    5.7521   -0.7409   -1.2112 C   0  0  0  0  0  4           0  0  0
   -3.0985    0.3245    8.1978 C   0  0  0  0  0  4           0  0  0
   -1.5277    1.7959    7.0327 C   0  0  0  0  0  4           0  0  0
   -1.6025    1.0205    5.8699 C   0  0  0  0  0  4           0  0  0
    4.0800   -2.4876   -1.2542 C   0  0  0  0  0  4           0  0  0
    6.7993   -1.6332   -1.1394 C   0  0  0  0  0  4           0  0  0
    5.1264   -3.4137   -1.1824 C   0  0  0  0  0  4           0  0  0
    6.4713   -2.9913   -1.1263 C   0  0  0  0  0  4           0  0  0
   -2.1672   -1.0774    3.5654 C   0  0  2  0  0  4           0  0  0
    2.1685    0.0000   -1.3858 C   0  0  0  0  0  4           0  0  0
   -0.1262   -1.1977    2.0839 C   0  0  0  0  0  4           0  0  0
   -2.0383    0.0792    1.3189 C   0  0  0  0  0  4           0  0  0
    0.0000    0.0000    0.0000 C   0  0  0  0  0  4           0  0  0
   -0.6374   -1.1866    3.5266 C   0  0  0  0  0  4           0  0  0
   -2.6265    0.1265    2.7316 C   0  0  0  0  0  4           0  0  0
    1.5282    0.0000    0.0000 C   0  0  0  0  0  4           0  0  0
  1  9  1  0     0  0
  2 10  2  0     0  0
  3 11  2  0     0  0
  4 10  1  0     0  0
  4 12  1  0     0  0
  4 23  1  0     0  0
  5 11  1  0     0  0
  5 13  1  0     0  0
  5 24  1  0     0  0
  6 10  1  0     0  0
  6 14  1  0     0  0
  7 11  1  0     0  0
  7 15  1  0     0  0
  8 25  1  0     0  0
  8 26  1  0     0  0
  8 27  1  0     0  0
  9 16  2  0     0  0
  9 17  1  0     0  0
 12 14  2  0     0  0
 12 18  1  0     0  0
 13 15  2  0     0  0
 13 19  1  0     0  0
 14 16  1  0     0  0
 15 20  1  0     0  0
 17 18  2  0     0  0
 19 21  2  0     0  0
 20 22  2  0     0  0
 21 22  1  0     0  0
 23 28  1  0     0  0
 23 29  1  0     0  0
 24 30  1  0     0  0
 25 28  1  0     0  0
 26 29  1  0     0  0
 27 30  1  0     0  0
M  END
> <standard_type>
pIC50

> <# Confs.>
25

> <canonical_smiles>
O=C1N(CCCN2CCC(N3C(C=CC(Cl)=C4)=C4NC3=O)CC2)C5=C(C=CC=C5)N1

> <standard_relation>
=

> <Publication_ID>
nan

> <predicted_activity_value>
nan

> <actual_activity_value>
0.790484985457369

> <Compound>
Domperidone

> <standard_units>
uM

> hash
8190867388067327349

$$$$
17
XXILIB    08252103503D 0   0.00000     0.00000

 30 34  0     1  0            999 V2000
   -2.6136   -2.7227    9.3963 Cl  0  0  0  0  0  1           0  0  0
   -3.8757    3.1256    4.9940 O   0  0  0  0  0  2           0  0  0
    4.1226   -2.3253   -1.3025 O   0  0  0  0  0  2           0  0  0
   -2.7264    1.0405    4.9014 N   0  0  2  0  0  3           0  0  0
    3.6184    0.0000   -1.3374 N   0  0  1  0  0  3           0  0  0
   -3.8279    1.6131    6.8069 N   0  0  0  0  0  3           0  0  0
    5.7934   -0.6530   -1.2935 N   0  0  0  0  0  3           0  0  0
   -0.5680   -0.0000    1.3507 N   0  0  2  0  0  3           0  0  0
   -2.6062   -1.6594    8.0391 C   0  0  0  0  0  4           0  0  0
   -3.5214    2.0672    5.4949 C   0  0  0  0  0  4           0  0  0
    4.4600   -1.1497   -1.3093 C   0  0  0  0  0  4           0  0  0
   -2.5653    0.0001    5.8369 C   0  0  0  0  0  4           0  0  0
    4.4241    1.1509   -1.3521 C   0  0  0  0  0  4           0  0  0
   -3.2434    0.3622    7.0004 C   0  0  0  0  0  4           0  0  0
    5.7558    0.7409   -1.3210 C   0  0  0  0  0  4           0  0  0
   -3.2844   -0.4409    8.1196 C   0  0  0  0  0  4           0  0  0
   -1.9166   -2.0394    6.8692 C   0  0  0  0  0  4           0  0  0
   -1.8916   -1.2016    5.7483 C   0  0  0  0  0  4           0  0  0
    4.0845    2.4876   -1.3897 C   0  0  0  0  0  4           0  0  0
    6.8054    1.6332   -1.3228 C   0  0  0  0  0  4           0  0  0
    5.1334    3.4137   -1.3915 C   0  0  0  0  0  4           0  0  0
    6.4790    2.9913   -1.3578 C   0  0  0  0  0  4           0  0  0
   -2.1762    1.0718    3.5617 C   0  0  2  0  0  4           0  0  0
    2.1685    0.0000   -1.3858 C   0  0  0  0  0  4           0  0  0
   -2.0385   -0.0000    1.2797 C   0  0  0  0  0  4           0  0  0
   -0.0841    1.1448    2.1408 C   0  0  0  0  0  4           0  0  0
   -0.0000    0.0000    0.0000 C   0  0  0  0  0  4           0  0  0
   -2.6626   -0.0818    2.6749 C   0  0  0  0  0  4           0  0  0
   -0.6421    1.1164    3.5662 C   0  0  0  0  0  4           0  0  0
    1.5282    0.0000    0.0000 C   0  0  0  0  0  4           0  0  0
  1  9  1  0     0  0
  2 10  2  0     0  0
  3 11  2  0     0  0
  4 10  1  0     0  0
  4 12  1  0     0  0
  4 23  1  0     0  0
  5 11  1  0     0  0
  5 13  1  0     0  0
  5 24  1  0     0  0
  6 10  1  0     0  0
  6 14  1  0     0  0
  7 11  1  0     0  0
  7 15  1  0     0  0
  8 25  1  0     0  0
  8 26  1  0     0  0
  8 27  1  0     0  0
  9 16  2  0     0  0
  9 17  1  0     0  0
 12 14  2  0     0  0
 12 18  1  0     0  0
 13 15  2  0     0  0
 13 19  1  0     0  0
 14 16  1  0     0  0
 15 20  1  0     0  0
 17 18  2  0     0  0
 19 21  2  0     0  0
 20 22  2  0     0  0
 21 22  1  0     0  0
 23 28  1  0     0  0
 23 29  1  0     0  0
 24 30  1  0     0  0
 25 28  1  0     0  0
 26 29  1  0     0  0
 27 30  1  0     0  0
M  END
> <standard_type>
pIC50

> <# Confs.>
25

> <canonical_smiles>
O=C1N(CCCN2CCC(N3C(C=CC(Cl)=C4)=C4NC3=O)CC2)C5=C(C=CC=C5)N1

> <standard_relation>
=

> <Publication_ID>
nan

> <predicted_activity_value>
nan

> <actual_activity_value>
0.790484985457369

> <Compound>
Domperidone

> <standard_units>
uM

> hash
8190867388067327349

$$$$
17
XXILIB    08252103503D 0   0.00000     0.00000

 30 34  0     1  0            999 V2000
   -6.4128   -4.3805    8.0037 Cl  0  0  0  0  0  1           0  0  0
   -1.6677    0.8949    5.8056 O   0  0  0  0  0  2           0  0  0
    4.1238   -0.0034    2.6831 O   0  0  0  0  0  2           0  0  0
   -2.7093   -1.0513    4.9086 N   0  0  2  0  0  3           0  0  0
    3.6184    1.1582    0.6687 N   0  0  1  0  0  3           0  0  0
   -3.1558   -0.4471    7.0551 N   0  0  0  0  0  3           0  0  0
    5.7915    0.7441    1.1836 N   0  0  0  0  0  3           0  0  0
   -0.5680   -0.0000    1.3507 N   0  0  2  0  0  3           0  0  0
   -5.3308   -3.4453    7.0405 C   0  0  0  0  0  4           0  0  0
   -2.4100   -0.0726    5.9041 C   0  0  0  0  0  4           0  0  0
    4.4600    0.5590    1.6503 C   0  0  0  0  0  4           0  0  0
   -3.6126   -1.9843    5.4535 C   0  0  0  0  0  4           0  0  0
    4.4213    1.6744   -0.3622 C   0  0  0  0  0  4           0  0  0
   -3.8782   -1.6047    6.7688 C   0  0  0  0  0  4           0  0  0
    5.7521    1.4194   -0.0360 C   0  0  0  0  0  4           0  0  0
   -4.7299   -2.3107    7.5907 C   0  0  0  0  0  4           0  0  0
   -5.0723   -3.8414    5.7120 C   0  0  0  0  0  4           0  0  0
   -4.2011   -3.1045    4.9015 C   0  0  0  0  0  4           0  0  0
    4.0800    2.3299   -1.5272 C   0  0  0  0  0  4           0  0  0
    6.7993    1.8034   -0.8447 C   0  0  0  0  0  4           0  0  0
    5.1264    2.7308   -2.3651 C   0  0  0  0  0  4           0  0  0
    6.4713    2.4711   -2.0274 C   0  0  0  0  0  4           0  0  0
   -2.1672   -1.0774    3.5654 C   0  0  2  0  0  4           0  0  0
    2.1685    1.2001    0.6929 C   0  0  0  0  0  4           0  0  0
   -0.1262   -1.1977    2.0839 C   0  0  0  0  0  4           0  0  0
   -2.0383    0.0792    1.3189 C   0  0  0  0  0  4           0  0  0
    0.0000    0.0000    0.0000 C   0  0  0  0  0  4           0  0  0
   -0.6374   -1.1866    3.5266 C   0  0  0  0  0  4           0  0  0
   -2.6265    0.1265    2.7316 C   0  0  0  0  0  4           0  0  0
    1.5282   -0.0000   -0.0000 C   0  0  0  0  0  4           0  0  0
  1  9  1  0     0  0
  2 10  2  0     0  0
  3 11  2  0     0  0
  4 10  1  0     0  0
  4 12  1  0     0  0
  4 23  1  0     0  0
  5 11  1  0     0  0
  5 13  1  0     0  0
  5 24  1  0     0  0
  6 10  1  0     0  0
  6 14  1  0     0  0
  7 11  1  0     0  0
  7 15  1  0     0  0
  8 25  1  0     0  0
  8 26  1  0     0  0
  8 27  1  0     0  0
  9 16  2  0     0  0
  9 17  1  0     0  0
 12 14  2  0     0  0
 12 18  1  0     0  0
 13 15  2  0     0  0
 13 19  1  0     0  0
 14 16  1  0     0  0
 15 20  1  0     0  0
 17 18  2  0     0  0
 19 21  2  0     0  0
 20 22  2  0     0  0
 21 22  1  0     0  0
 23 28  1  0     0  0
 23 29  1  0     0  0
 24 30  1  0     0  0
 25 28  1  0     0  0
 26 29  1  0     0  0
 27 30  1  0     0  0
M  END
> <standard_type>
pIC50

> <# Confs.>
25

> <canonical_smiles>
O=C1N(CCCN2CCC(N3C(C=CC(Cl)=C4)=C4NC3=O)CC2)C5=C(C=CC=C5)N1

> <standard_relation>
=

> <Publication_ID>
nan

> <predicted_activity_value>
nan

> <actual_activity_value>
0.790484985457369

> <Compound>
Domperidone

> <standard_units>
uM

> hash
8190867388067327349

$$$$
17
XXILIB    08252103503D 0   0.00000     0.00000

 30 34  0     1  0            999 V2000
   -2.1455    2.4295    9.5932 Cl  0  0  0  0  0  1           0  0  0
   -4.1079   -2.9802    4.8963 O   0  0  0  0  0  2           0  0  0
    4.1226   -2.3253   -1.3025 O   0  0  0  0  0  2           0  0  0
   -2.7093   -1.0513    4.9086 N   0  0  2  0  0  3           0  0  0
    3.6184    0.0000   -1.3374 N   0  0  1  0  0  3           0  0  0
   -3.8853   -1.5771    6.7827 N   0  0  0  0  0  3           0  0  0
    5.7934   -0.6530   -1.2935 N   0  0  0  0  0  3           0  0  0
   -0.5680   -0.0000    1.3507 N   0  0  2  0  0  3           0  0  0
   -2.2688    1.4481    8.1810 C   0  0  0  0  0  4           0  0  0
   -3.6287   -2.0000    5.4497 C   0  0  0  0  0  4           0  0  0
    4.4600   -1.1497   -1.3093 C   0  0  0  0  0  4           0  0  0
   -2.4244   -0.0883    5.8962 C   0  0  0  0  0  4           0  0  0
    4.4241    1.1509   -1.3521 C   0  0  0  0  0  4           0  0  0
   -3.1509   -0.4201    7.0393 C   0  0  0  0  0  4           0  0  0
    5.7558    0.7409   -1.3210 C   0  0  0  0  0  4           0  0  0
   -3.0985    0.3245    8.1978 C   0  0  0  0  0  4           0  0  0
   -1.5277    1.7959    7.0327 C   0  0  0  0  0  4           0  0  0
   -1.6025    1.0205    5.8699 C   0  0  0  0  0  4           0  0  0
    4.0845    2.4876   -1.3897 C   0  0  0  0  0  4           0  0  0
    6.8054    1.6332   -1.3228 C   0  0  0  0  0  4           0  0  0
    5.1334    3.4137   -1.3915 C   0  0  0  0  0  4           0  0  0
    6.4790    2.9913   -1.3578 C   0  0  0  0  0  4           0  0  0
   -2.1672   -1.0774    3.5654 C   0  0  2  0  0  4           0  0  0
    2.1685    0.0000   -1.3858 C   0  0  0  0  0  4           0  0  0
   -0.1262   -1.1977    2.0839 C   0  0  0  0  0  4           0  0  0
   -2.0383    0.0792    1.3189 C   0  0  0  0  0  4           0  0  0
    0.0000    0.0000    0.0000 C   0  0  0  0  0  4           0  0  0
   -0.6374   -1.1866    3.5266 C   0  0  0  0  0  4           0  0  0
   -2.6265    0.1265    2.7316 C   0  0  0  0  0  4           0  0  0
    1.5282    0.0000    0.0000 C   0  0  0  0  0  4           0  0  0
  1  9  1  0     0  0
  2 10  2  0     0  0
  3 11  2  0     0  0
  4 10  1  0     0  0
  4 12  1  0     0  0
  4 23  1  0     0  0
  5 11  1  0     0  0
  5 13  1  0     0  0
  5 24  1  0     0  0
  6 10  1  0     0  0
  6 14  1  0     0  0
  7 11  1  0     0  0
  7 15  1  0     0  0
  8 25  1  0     0  0
  8 26  1  0     0  0
  8 27  1  0     0  0
  9 16  2  0     0  0
  9 17  1  0     0  0
 12 14  2  0     0  0
 12 18  1  0     0  0
 13 15  2  0     0  0
 13 19  1  0     0  0
 14 16  1  0     0  0
 15 20  1  0     0  0
 17 18  2  0     0  0
 19 21  2  0     0  0
 20 22  2  0     0  0
 21 22  1  0     0  0
 23 28  1  0     0  0
 23 29  1  0     0  0
 24 30  1  0     0  0
 25 28  1  0     0  0
 26 29  1  0     0  0
 27 30  1  0     0  0
M  END
> <standard_type>
pIC50

> <# Confs.>
25

> <canonical_smiles>
O=C1N(CCCN2CCC(N3C(C=CC(Cl)=C4)=C4NC3=O)CC2)C5=C(C=CC=C5)N1

> <standard_relation>
=

> <Publication_ID>
nan

> <predicted_activity_value>
nan

> <actual_activity_value>
0.790484985457369

> <Compound>
Domperidone

> <standard_units>
uM

> hash
8190867388067327349

$$$$
17
XXILIB    08252103503D 0   0.00000     0.00000

 30 34  0     1  0            999 V2000
   -6.4128   -4.3805    8.0037 Cl  0  0  0  0  0  1           0  0  0
   -1.6677    0.8949    5.8056 O   0  0  0  0  0  2           0  0  0
   -0.1481    0.3916   -3.3125 O   0  0  0  0  0  2           0  0  0
   -2.7093   -1.0513    4.9086 N   0  0  2  0  0  3           0  0  0
    1.7986    1.1574   -2.1783 N   0  0  1  0  0  3           0  0  0
   -3.1558   -0.4471    7.0551 N   0  0  0  0  0  3           0  0  0
    0.7144    2.5761   -3.5822 N   0  0  0  0  0  3           0  0  0
   -0.5680   -0.0000    1.3507 N   0  0  2  0  0  3           0  0  0
   -5.3308   -3.4453    7.0405 C   0  0  0  0  0  4           0  0  0
   -2.4100   -0.0726    5.9041 C   0  0  0  0  0  4           0  0  0
    0.6800    1.2544   -3.0560 C   0  0  0  0  0  4           0  0  0
   -3.6126   -1.9843    5.4535 C   0  0  0  0  0  4           0  0  0
    2.4747    2.3889   -2.1685 C   0  0  0  0  0  4           0  0  0
   -3.8782   -1.6047    6.7688 C   0  0  0  0  0  4           0  0  0
    1.8052    3.2512   -3.0350 C   0  0  0  0  0  4           0  0  0
   -4.7299   -2.3107    7.5907 C   0  0  0  0  0  4           0  0  0
   -5.0723   -3.8414    5.7120 C   0  0  0  0  0  4           0  0  0
   -4.2011   -3.1045    4.9015 C   0  0  0  0  0  4           0  0  0
    3.5977    2.7943   -1.4770 C   0  0  0  0  0  4           0  0  0
    2.2185    4.5466   -3.2561 C   0  0  0  0  0  4           0  0  0
    4.0377    4.1061   -1.6854 C   0  0  0  0  0  4           0  0  0
    3.3561    4.9726   -2.5657 C   0  0  0  0  0  4           0  0  0
   -2.1672   -1.0774    3.5654 C   0  0  2  0  0  4           0  0  0
    2.1685    0.0000   -1.3858 C   0  0  0  0  0  4           0  0  0
   -0.1262   -1.1977    2.0839 C   0  0  0  0  0  4           0  0  0
   -2.0383    0.0792    1.3189 C   0  0  0  0  0  4           0  0  0
    0.0000    0.0000    0.0000 C   0  0  0  0  0  4           0  0  0
   -0.6374   -1.1866    3.5266 C   0  0  0  0  0  4           0  0  0
   -2.6265    0.1265    2.7316 C   0  0  0  0  0  4           0  0  0
    1.5282    0.0000    0.0000 C   0  0  0  0  0  4           0  0  0
  1  9  1  0     0  0
  2 10  2  0     0  0
  3 11  2  0     0  0
  4 10  1  0     0  0
  4 12  1  0     0  0
  4 23  1  0     0  0
  5 11  1  0     0  0
  5 13  1  0     0  0
  5 24  1  0     0  0
  6 10  1  0     0  0
  6 14  1  0     0  0
  7 11  1  0     0  0
  7 15  1  0     0  0
  8 25  1  0     0  0
  8 26  1  0     0  0
  8 27  1  0     0  0
  9 16  2  0     0  0
  9 17  1  0     0  0
 12 14  2  0     0  0
 12 18  1  0     0  0
 13 15  2  0     0  0
 13 19  1  0     0  0
 14 16  1  0     0  0
 15 20  1  0     0  0
 17 18  2  0     0  0
 19 21  2  0     0  0
 20 22  2  0     0  0
 21 22  1  0     0  0
 23 28  1  0     0  0
 23 29  1  0     0  0
 24 30  1  0     0  0
 25 28  1  0     0  0
 26 29  1  0     0  0
 27 30  1  0     0  0
M  END
> <standard_type>
pIC50

> <# Confs.>
25

> <canonical_smiles>
O=C1N(CCCN2CCC(N3C(C=CC(Cl)=C4)=C4NC3=O)CC2)C5=C(C=CC=C5)N1

> <standard_relation>
=

> <Publication_ID>
nan

> <predicted_activity_value>
nan

> <actual_activity_value>
0.790484985457369

> <Compound>
Domperidone

> <standard_units>
uM

> hash
8190867388067327349

$$$$
17
XXILIB    08252103503D 0   0.00000     0.00000

 30 34  0     1  0            999 V2000
   -6.0263    4.6225    8.1662 Cl  0  0  0  0  0  1           0  0  0
   -1.9396   -1.0652    5.6913 O   0  0  0  0  0  2           0  0  0
   -0.1685   -0.4038   -3.2853 O   0  0  0  0  0  2           0  0  0
   -2.7264    1.0405    4.9014 N   0  0  2  0  0  3           0  0  0
    1.7986   -1.1574   -2.1783 N   0  0  1  0  0  3           0  0  0
   -3.2721    0.3743    7.0062 N   0  0  0  0  0  3           0  0  0
    0.7467   -2.5568   -3.6254 N   0  0  0  0  0  3           0  0  0
   -0.5680   -0.0000    1.3507 N   0  0  2  0  0  3           0  0  0
   -5.0606    3.6145    7.1542 C   0  0  0  0  0  4           0  0  0
   -2.5610   -0.0220    5.8406 C   0  0  0  0  0  4           0  0  0
    0.6800   -1.2544   -3.0560 C   0  0  0  0  0  4           0  0  0
   -3.5154    2.0453    5.4944 C   0  0  0  0  0  4           0  0  0
    2.5215   -2.3609   -2.2312 C   0  0  0  0  0  4           0  0  0
   -3.8444    1.6259    6.7831 C   0  0  0  0  0  4           0  0  0
    1.8671   -3.2141   -3.1179 C   0  0  0  0  0  4           0  0  0
   -4.6147    2.3828    7.6392 C   0  0  0  0  0  4           0  0  0
   -4.7356    4.0522    5.8536 C   0  0  0  0  0  4           0  0  0
   -3.9521    3.2604    5.0062 C   0  0  0  0  0  4           0  0  0
    3.6740   -2.7487   -1.5793 C   0  0  0  0  0  4           0  0  0
    2.3218   -4.4848   -3.3946 C   0  0  0  0  0  4           0  0  0
    4.1555   -4.0356   -1.8433 C   0  0  0  0  0  4           0  0  0
    3.4865   -4.8946   -2.7405 C   0  0  0  0  0  4           0  0  0
   -2.1762    1.0718    3.5617 C   0  0  2  0  0  4           0  0  0
    2.1685    0.0000   -1.3858 C   0  0  0  0  0  4           0  0  0
   -2.0385   -0.0000    1.2797 C   0  0  0  0  0  4           0  0  0
   -0.0841    1.1448    2.1408 C   0  0  0  0  0  4           0  0  0
   -0.0000    0.0000    0.0000 C   0  0  0  0  0  4           0  0  0
   -2.6626   -0.0818    2.6749 C   0  0  0  0  0  4           0  0  0
   -0.6421    1.1164    3.5662 C   0  0  0  0  0  4           0  0  0
    1.5282   -0.0000   -0.0000 C   0  0  0  0  0  4           0  0  0
  1  9  1  0     0  0
  2 10  2  0     0  0
  3 11  2  0     0  0
  4 10  1  0     0  0
  4 12  1  0     0  0
  4 23  1  0     0  0
  5 11  1  0     0  0
  5 13  1  0     0  0
  5 24  1  0     0  0
  6 10  1  0     0  0
  6 14  1  0     0  0
  7 11  1  0     0  0
  7 15  1  0     0  0
  8 25  1  0     0  0
  8 26  1  0     0  0
  8 27  1  0     0  0
  9 16  2  0     0  0
  9 17  1  0     0  0
 12 14  2  0     0  0
 12 18  1  0     0  0
 13 15  2  0     0  0
 13 19  1  0     0  0
 14 16  1  0     0  0
 15 20  1  0     0  0
 17 18  2  0     0  0
 19 21  2  0     0  0
 20 22  2  0     0  0
 21 22  1  0     0  0
 23 28  1  0     0  0
 23 29  1  0     0  0
 24 30  1  0     0  0
 25 28  1  0     0  0
 26 29  1  0     0  0
 27 30  1  0     0  0
M  END
> <standard_type>
pIC50

> <# Confs.>
25

> <canonical_smiles>
O=C1N(CCCN2CCC(N3C(C=CC(Cl)=C4)=C4NC3=O)CC2)C5=C(C=CC=C5)N1

> <standard_relation>
=

> <Publication_ID>
nan

> <predicted_activity_value>
nan

> <actual_activity_value>
0.790484985457369

> <Compound>
Domperidone

> <standard_units>
uM

> hash
8190867388067327349

$$$$
17
XXILIB    08252103503D 0   0.00000     0.00000

 30 34  0     1  0            999 V2000
   -2.6136   -2.7227    9.3963 Cl  0  0  0  0  0  1           0  0  0
   -3.8757    3.1256    4.9940 O   0  0  0  0  0  2           0  0  0
    3.4877    2.7291   -1.5959 O   0  0  0  0  0  2           0  0  0
   -2.7264    1.0405    4.9014 N   0  0  2  0  0  3           0  0  0
    1.7986    1.1574   -2.1783 N   0  0  1  0  0  3           0  0  0
   -3.8279    1.6131    6.8069 N   0  0  0  0  0  3           0  0  0
    1.7734    3.2098   -3.1510 N   0  0  0  0  0  3           0  0  0
   -0.5680   -0.0000    1.3507 N   0  0  2  0  0  3           0  0  0
   -2.6062   -1.6594    8.0391 C   0  0  0  0  0  4           0  0  0
   -3.5214    2.0672    5.4949 C   0  0  0  0  0  4           0  0  0
    2.4877    2.4041   -2.2207 C   0  0  0  0  0  4           0  0  0
   -2.5653    0.0001    5.8369 C   0  0  0  0  0  4           0  0  0
    0.7120    1.2100   -3.0673 C   0  0  0  0  0  4           0  0  0
   -3.2434    0.3622    7.0004 C   0  0  0  0  0  4           0  0  0
    0.7022    2.4732   -3.6562 C   0  0  0  0  0  4           0  0  0
   -3.2844   -0.4409    8.1196 C   0  0  0  0  0  4           0  0  0
   -1.9166   -2.0394    6.8692 C   0  0  0  0  0  4           0  0  0
   -1.8916   -1.2016    5.7483 C   0  0  0  0  0  4           0  0  0
   -0.2372    0.2611   -3.3866 C   0  0  0  0  0  4           0  0  0
   -0.2461    2.8516   -4.5811 C   0  0  0  0  0  4           0  0  0
   -1.2119    0.6219   -4.3235 C   0  0  0  0  0  4           0  0  0
   -1.2168    1.9032   -4.9138 C   0  0  0  0  0  4           0  0  0
   -2.1762    1.0718    3.5617 C   0  0  2  0  0  4           0  0  0
    2.1685    0.0000   -1.3858 C   0  0  0  0  0  4           0  0  0
   -2.0385   -0.0000    1.2797 C   0  0  0  0  0  4           0  0  0
   -0.0841    1.1448    2.1408 C   0  0  0  0  0  4           0  0  0
   -0.0000    0.0000    0.0000 C   0  0  0  0  0  4           0  0  0
   -2.6626   -0.0818    2.6749 C   0  0  0  0  0  4           0  0  0
   -0.6421    1.1164    3.5662 C   0  0  0  0  0  4           0  0  0
    1.5282    0.0000   -0.0000 C   0  0  0  0  0  4           0  0  0
  1  9  1  0     0  0
  2 10  2  0     0  0
  3 11  2  0     0  0
  4 10  1  0     0  0
  4 12  1  0     0  0
  4 23  1  0     0  0
  5 11  1  0     0  0
  5 13  1  0     0  0
  5 24  1  0     0  0
  6 10  1  0     0  0
  6 14  1  0     0  0
  7 11  1  0     0  0
  7 15  1  0     0  0
  8 25  1  0     0  0
  8 26  1  0     0  0
  8 27  1  0     0  0
  9 16  2  0     0  0
  9 17  1  0     0  0
 12 14  2  0     0  0
 12 18  1  0     0  0
 13 15  2  0     0  0
 13 19  1  0     0  0
 14 16  1  0     0  0
 15 20  1  0     0  0
 17 18  2  0     0  0
 19 21  2  0     0  0
 20 22  2  0     0  0
 21 22  1  0     0  0
 23 28  1  0     0  0
 23 29  1  0     0  0
 24 30  1  0     0  0
 25 28  1  0     0  0
 26 29  1  0     0  0
 27 30  1  0     0  0
M  END
> <standard_type>
pIC50

> <# Confs.>
25

> <canonical_smiles>
O=C1N(CCCN2CCC(N3C(C=CC(Cl)=C4)=C4NC3=O)CC2)C5=C(C=CC=C5)N1

> <standard_relation>
=

> <Publication_ID>
nan

> <predicted_activity_value>
nan

> <actual_activity_value>
0.790484985457369

> <Compound>
Domperidone

> <standard_units>
uM

> hash
8190867388067327349

$$$$
17
XXILIB    08252103503D 0   0.00000     0.00000

 30 34  0     1  0            999 V2000
   -6.4128   -4.3805    8.0037 Cl  0  0  0  0  0  1           0  0  0
   -1.6677    0.8949    5.8056 O   0  0  0  0  0  2           0  0  0
   -0.1685   -0.4038   -3.2853 O   0  0  0  0  0  2           0  0  0
   -2.7093   -1.0513    4.9086 N   0  0  2  0  0  3           0  0  0
    1.7986   -1.1574   -2.1783 N   0  0  1  0  0  3           0  0  0
   -3.1558   -0.4471    7.0551 N   0  0  0  0  0  3           0  0  0
    0.7467   -2.5568   -3.6254 N   0  0  0  0  0  3           0  0  0
   -0.5680   -0.0000    1.3507 N   0  0  2  0  0  3           0  0  0
   -5.3308   -3.4453    7.0405 C   0  0  0  0  0  4           0  0  0
   -2.4100   -0.0726    5.9041 C   0  0  0  0  0  4           0  0  0
    0.6800   -1.2544   -3.0560 C   0  0  0  0  0  4           0  0  0
   -3.6126   -1.9843    5.4535 C   0  0  0  0  0  4           0  0  0
    2.5215   -2.3609   -2.2312 C   0  0  0  0  0  4           0  0  0
   -3.8782   -1.6047    6.7688 C   0  0  0  0  0  4           0  0  0
    1.8671   -3.2141   -3.1179 C   0  0  0  0  0  4           0  0  0
   -4.7299   -2.3107    7.5907 C   0  0  0  0  0  4           0  0  0
   -5.0723   -3.8414    5.7120 C   0  0  0  0  0  4           0  0  0
   -4.2011   -3.1045    4.9015 C   0  0  0  0  0  4           0  0  0
    3.6740   -2.7487   -1.5793 C   0  0  0  0  0  4           0  0  0
    2.3218   -4.4848   -3.3946 C   0  0  0  0  0  4           0  0  0
    4.1555   -4.0356   -1.8433 C   0  0  0  0  0  4           0  0  0
    3.4865   -4.8946   -2.7405 C   0  0  0  0  0  4           0  0  0
   -2.1672   -1.0774    3.5654 C   0  0  2  0  0  4           0  0  0
    2.1685    0.0000   -1.3858 C   0  0  0  0  0  4           0  0  0
   -0.1262   -1.1977    2.0839 C   0  0  0  0  0  4           0  0  0
   -2.0383    0.0792    1.3189 C   0  0  0  0  0  4           0  0  0
    0.0000    0.0000    0.0000 C   0  0  0  0  0  4           0  0  0
   -0.6374   -1.1866    3.5266 C   0  0  0  0  0  4           0  0  0
   -2.6265    0.1265    2.7316 C   0  0  0  0  0  4           0  0  0
    1.5282   -0.0000   -0.0000 C   0  0  0  0  0  4           0  0  0
  1  9  1  0     0  0
  2 10  2  0     0  0
  3 11  2  0     0  0
  4 10  1  0     0  0
  4 12  1  0     0  0
  4 23  1  0     0  0
  5 11  1  0     0  0
  5 13  1  0     0  0
  5 24  1  0     0  0
  6 10  1  0     0  0
  6 14  1  0     0  0
  7 11  1  0     0  0
  7 15  1  0     0  0
  8 25  1  0     0  0
  8 26  1  0     0  0
  8 27  1  0     0  0
  9 16  2  0     0  0
  9 17  1  0     0  0
 12 14  2  0     0  0
 12 18  1  0     0  0
 13 15  2  0     0  0
 13 19  1  0     0  0
 14 16  1  0     0  0
 15 20  1  0     0  0
 17 18  2  0     0  0
 19 21  2  0     0  0
 20 22  2  0     0  0
 21 22  1  0     0  0
 23 28  1  0     0  0
 23 29  1  0     0  0
 24 30  1  0     0  0
 25 28  1  0     0  0
 26 29  1  0     0  0
 27 30  1  0     0  0
M  END
> <standard_type>
pIC50

> <# Confs.>
25

> <canonical_smiles>
O=C1N(CCCN2CCC(N3C(C=CC(Cl)=C4)=C4NC3=O)CC2)C5=C(C=CC=C5)N1

> <standard_relation>
=

> <Publication_ID>
nan

> <predicted_activity_value>
nan

> <actual_activity_value>
0.790484985457369

> <Compound>
Domperidone

> <standard_units>
uM

> hash
8190867388067327349

$$$$
17
XXILIB    08252103503D 0   0.00000     0.00000

 30 34  0     1  0            999 V2000
   -7.4892    3.2247    7.5327 Cl  0  0  0  0  0  1           0  0  0
   -1.1042   -0.2706    6.0530 O   0  0  0  0  0  2           0  0  0
    4.1238   -2.3219   -1.3445 O   0  0  0  0  0  2           0  0  0
   -2.7264    1.0405    4.9014 N   0  0  2  0  0  3           0  0  0
    3.6184   -1.1582    0.6687 N   0  0  1  0  0  3           0  0  0
   -3.0240    0.6047    7.1135 N   0  0  0  0  0  3           0  0  0
    5.7915   -1.3971    0.0526 N   0  0  0  0  0  3           0  0  0
   -0.5680   -0.0000    1.3507 N   0  0  2  0  0  3           0  0  0
   -6.1107    2.6098    6.6994 C   0  0  0  0  0  4           0  0  0
   -2.1441    0.3729    6.0210 C   0  0  0  0  0  4           0  0  0
    4.4600   -1.7087   -0.3410 C   0  0  0  0  0  4           0  0  0
   -3.9227    1.6561    5.3180 C   0  0  0  0  0  4           0  0  0
    4.4213   -0.5236    1.6312 C   0  0  0  0  0  4           0  0  0
   -4.0951    1.3816    6.6744 C   0  0  0  0  0  4           0  0  0
    5.7521   -0.6785    1.2473 C   0  0  0  0  0  4           0  0  0
   -5.1758    1.8405    7.3961 C   0  0  0  0  0  4           0  0  0
   -5.9497    2.8960    5.3280 C   0  0  0  0  0  4           0  0  0
   -4.8417    2.4147    4.6211 C   0  0  0  0  0  4           0  0  0
    4.0800    0.1577    2.7814 C   0  0  0  0  0  4           0  0  0
    6.7993   -0.1702    1.9841 C   0  0  0  0  0  4           0  0  0
    5.1264    0.6828    3.5475 C   0  0  0  0  0  4           0  0  0
    6.4713    0.5203    3.1537 C   0  0  0  0  0  4           0  0  0
   -2.1762    1.0718    3.5617 C   0  0  2  0  0  4           0  0  0
    2.1685   -1.2001    0.6929 C   0  0  0  0  0  4           0  0  0
   -2.0385   -0.0000    1.2797 C   0  0  0  0  0  4           0  0  0
   -0.0841    1.1448    2.1408 C   0  0  0  0  0  4           0  0  0
   -0.0000    0.0000    0.0000 C   0  0  0  0  0  4           0  0  0
   -2.6626   -0.0818    2.6749 C   0  0  0  0  0  4           0  0  0
   -0.6421    1.1164    3.5662 C   0  0  0  0  0  4           0  0  0
    1.5282    0.0000   -0.0000 C   0  0  0  0  0  4           0  0  0
  1  9  1  0     0  0
  2 10  2  0     0  0
  3 11  2  0     0  0
  4 10  1  0     0  0
  4 12  1  0     0  0
  4 23  1  0     0  0
  5 11  1  0     0  0
  5 13  1  0     0  0
  5 24  1  0     0  0
  6 10  1  0     0  0
  6 14  1  0     0  0
  7 11  1  0     0  0
  7 15  1  0     0  0
  8 25  1  0     0  0
  8 26  1  0     0  0
  8 27  1  0     0  0
  9 16  2  0     0  0
  9 17  1  0     0  0
 12 14  2  0     0  0
 12 18  1  0     0  0
 13 15  2  0     0  0
 13 19  1  0     0  0
 14 16  1  0     0  0
 15 20  1  0     0  0
 17 18  2  0     0  0
 19 21  2  0     0  0
 20 22  2  0     0  0
 21 22  1  0     0  0
 23 28  1  0     0  0
 23 29  1  0     0  0
 24 30  1  0     0  0
 25 28  1  0     0  0
 26 29  1  0     0  0
 27 30  1  0     0  0
M  END
> <standard_type>
pIC50

> <# Confs.>
25

> <canonical_smiles>
O=C1N(CCCN2CCC(N3C(C=CC(Cl)=C4)=C4NC3=O)CC2)C5=C(C=CC=C5)N1

> <standard_relation>
=

> <Publication_ID>
nan

> <predicted_activity_value>
nan

> <actual_activity_value>
0.790484985457369

> <Compound>
Domperidone

> <standard_units>
uM

> hash
8190867388067327349

$$$$
17
XXILIB    08252103503D 0   0.00000     0.00000

 30 34  0     1  0            999 V2000
   -4.1061    5.0363    8.9645 Cl  0  0  0  0  0  1           0  0  0
   -3.0345   -1.2983    5.2362 O   0  0  0  0  0  2           0  0  0
    4.1238   -2.3219   -1.3445 O   0  0  0  0  0  2           0  0  0
   -2.7264    1.0405    4.9014 N   0  0  2  0  0  3           0  0  0
    3.6184   -1.1582    0.6687 N   0  0  1  0  0  3           0  0  0
   -3.5947    0.3099    6.8722 N   0  0  0  0  0  3           0  0  0
    5.7915   -1.3971    0.0526 N   0  0  0  0  0  3           0  0  0
   -0.5680   -0.0000    1.3507 N   0  0  2  0  0  3           0  0  0
   -3.6816    3.9127    7.7275 C   0  0  0  0  0  4           0  0  0
   -3.1064   -0.1369    5.6138 C   0  0  0  0  0  4           0  0  0
    4.4600   -1.7087   -0.3410 C   0  0  0  0  0  4           0  0  0
   -2.9807    2.1604    5.7167 C   0  0  0  0  0  4           0  0  0
    4.4213   -0.5236    1.6312 C   0  0  0  0  0  4           0  0  0
   -3.5131    1.7008    6.9209 C   0  0  0  0  0  4           0  0  0
    5.7521   -0.6785    1.2473 C   0  0  0  0  0  4           0  0  0
   -3.8753    2.5469    7.9467 C   0  0  0  0  0  4           0  0  0
   -3.1438    4.3924    6.5153 C   0  0  0  0  0  4           0  0  0
   -2.7865    3.5083    5.4907 C   0  0  0  0  0  4           0  0  0
    4.0800    0.1577    2.7814 C   0  0  0  0  0  4           0  0  0
    6.7993   -0.1702    1.9841 C   0  0  0  0  0  4           0  0  0
    5.1264    0.6828    3.5475 C   0  0  0  0  0  4           0  0  0
    6.4713    0.5203    3.1537 C   0  0  0  0  0  4           0  0  0
   -2.1762    1.0718    3.5617 C   0  0  2  0  0  4           0  0  0
    2.1685   -1.2001    0.6929 C   0  0  0  0  0  4           0  0  0
   -2.0385   -0.0000    1.2797 C   0  0  0  0  0  4           0  0  0
   -0.0841    1.1448    2.1408 C   0  0  0  0  0  4           0  0  0
   -0.0000    0.0000    0.0000 C   0  0  0  0  0  4           0  0  0
   -2.6626   -0.0818    2.6749 C   0  0  0  0  0  4           0  0  0
   -0.6421    1.1164    3.5662 C   0  0  0  0  0  4           0  0  0
    1.5282    0.0000   -0.0000 C   0  0  0  0  0  4           0  0  0
  1  9  1  0     0  0
  2 10  2  0     0  0
  3 11  2  0     0  0
  4 10  1  0     0  0
  4 12  1  0     0  0
  4 23  1  0     0  0
  5 11  1  0     0  0
  5 13  1  0     0  0
  5 24  1  0     0  0
  6 10  1  0     0  0
  6 14  1  0     0  0
  7 11  1  0     0  0
  7 15  1  0     0  0
  8 25  1  0     0  0
  8 26  1  0     0  0
  8 27  1  0     0  0
  9 16  2  0     0  0
  9 17  1  0     0  0
 12 14  2  0     0  0
 12 18  1  0     0  0
 13 15  2  0     0  0
 13 19  1  0     0  0
 14 16  1  0     0  0
 15 20  1  0     0  0
 17 18  2  0     0  0
 19 21  2  0     0  0
 20 22  2  0     0  0
 21 22  1  0     0  0
 23 28  1  0     0  0
 23 29  1  0     0  0
 24 30  1  0     0  0
 25 28  1  0     0  0
 26 29  1  0     0  0
 27 30  1  0     0  0
M  END
> <standard_type>
pIC50

> <# Confs.>
25

> <canonical_smiles>
O=C1N(CCCN2CCC(N3C(C=CC(Cl)=C4)=C4NC3=O)CC2)C5=C(C=CC=C5)N1

> <standard_relation>
=

> <Publication_ID>
nan

> <predicted_activity_value>
nan

> <actual_activity_value>
0.790484985457369

> <Compound>
Domperidone

> <standard_units>
uM

> hash
8190867388067327349

$$$$
17
XXILIB    08252103503D 0   0.00000     0.00000

 30 34  0     1  0            999 V2000
   -2.1455    2.4295    9.5932 Cl  0  0  0  0  0  1           0  0  0
   -4.1079   -2.9802    4.8963 O   0  0  0  0  0  2           0  0  0
    3.5080   -2.7170   -1.6231 O   0  0  0  0  0  2           0  0  0
   -2.7093   -1.0513    4.9086 N   0  0  2  0  0  3           0  0  0
    1.7986   -1.1574   -2.1783 N   0  0  1  0  0  3           0  0  0
   -3.8853   -1.5771    6.7827 N   0  0  0  0  0  3           0  0  0
    1.7411   -3.2291   -3.1078 N   0  0  0  0  0  3           0  0  0
   -0.5680   -0.0000    1.3507 N   0  0  2  0  0  3           0  0  0
   -2.2688    1.4481    8.1810 C   0  0  0  0  0  4           0  0  0
   -3.6287   -2.0000    5.4497 C   0  0  0  0  0  4           0  0  0
    2.4877   -2.4041   -2.2207 C   0  0  0  0  0  4           0  0  0
   -2.4244   -0.0883    5.8962 C   0  0  0  0  0  4           0  0  0
    0.6652   -1.2380   -3.0046 C   0  0  0  0  0  4           0  0  0
   -3.1509   -0.4201    7.0393 C   0  0  0  0  0  4           0  0  0
    0.6403   -2.5102   -3.5732 C   0  0  0  0  0  4           0  0  0
   -3.0985    0.3245    8.1978 C   0  0  0  0  0  4           0  0  0
   -1.5277    1.7959    7.0327 C   0  0  0  0  0  4           0  0  0
   -1.6025    1.0205    5.8699 C   0  0  0  0  0  4           0  0  0
   -0.3136   -0.3068   -3.2843 C   0  0  0  0  0  4           0  0  0
   -0.3494   -2.9134   -4.4426 C   0  0  0  0  0  4           0  0  0
   -1.3296   -0.6924   -4.1656 C   0  0  0  0  0  4           0  0  0
   -1.3472   -1.9813   -4.7390 C   0  0  0  0  0  4           0  0  0
   -2.1672   -1.0774    3.5654 C   0  0  2  0  0  4           0  0  0
    2.1685    0.0000   -1.3858 C   0  0  0  0  0  4           0  0  0
   -0.1262   -1.1977    2.0839 C   0  0  0  0  0  4           0  0  0
   -2.0383    0.0792    1.3189 C   0  0  0  0  0  4           0  0  0
    0.0000    0.0000    0.0000 C   0  0  0  0  0  4           0  0  0
   -0.6374   -1.1866    3.5266 C   0  0  0  0  0  4           0  0  0
   -2.6265    0.1265    2.7316 C   0  0  0  0  0  4           0  0  0
    1.5282   -0.0000    0.0000 C   0  0  0  0  0  4           0  0  0
  1  9  1  0     0  0
  2 10  2  0     0  0
  3 11  2  0     0  0
  4 10  1  0     0  0
  4 12  1  0     0  0
  4 23  1  0     0  0
  5 11  1  0     0  0
  5 13  1  0     0  0
  5 24  1  0     0  0
  6 10  1  0     0  0
  6 14  1  0     0  0
  7 11  1  0     0  0
  7 15  1  0     0  0
  8 25  1  0     0  0
  8 26  1  0     0  0
  8 27  1  0     0  0
  9 16  2  0     0  0
  9 17  1  0     0  0
 12 14  2  0     0  0
 12 18  1  0     0  0
 13 15  2  0     0  0
 13 19  1  0     0  0
 14 16  1  0     0  0
 15 20  1  0     0  0
 17 18  2  0     0  0
 19 21  2  0     0  0
 20 22  2  0     0  0
 21 22  1  0     0  0
 23 28  1  0     0  0
 23 29  1  0     0  0
 24 30  1  0     0  0
 25 28  1  0     0  0
 26 29  1  0     0  0
 27 30  1  0     0  0
M  END
> <standard_type>
pIC50

> <# Confs.>
25

> <canonical_smiles>
O=C1N(CCCN2CCC(N3C(C=CC(Cl)=C4)=C4NC3=O)CC2)C5=C(C=CC=C5)N1

> <standard_relation>
=

> <Publication_ID>
nan

> <predicted_activity_value>
nan

> <actual_activity_value>
0.790484985457369

> <Compound>
Domperidone

> <standard_units>
uM

> hash
8190867388067327349

$$$$
18
XXILIB    08252103503D 0   0.00000     0.00000

 28 31  0     1  0            999 V2000
    1.5674   -7.0496    3.2924 F   0  0  0  0  0  1           0  0  0
   -1.3789    0.4119    6.3279 O   0  0  0  0  0  2           0  0  0
    1.5132   -2.6150   -1.1408 O   0  0  0  0  0  2           0  0  0
   -3.1049    0.8011    4.6836 N   0  0  2  0  0  3           0  0  0
   -3.5962    0.8856    6.9244 N   0  0  0  0  0  3           0  0  0
   -0.6825    0.0000    1.2956 N   0  0  2  0  0  3           0  0  0
    1.6181   -5.9585    2.5150 C   0  0  0  0  0  4           0  0  0
   -2.5346    0.6648    6.0118 C   0  0  0  0  0  4           0  0  0
   -4.4856    1.1027    4.8525 C   0  0  0  0  0  4           0  0  0
   -4.7620    1.1476    6.2186 C   0  0  0  0  0  4           0  0  0
    1.7219   -3.7132    0.9164 C   0  0  0  0  0  4           0  0  0
    2.5118   -4.9362    2.8295 C   0  0  0  0  0  4           0  0  0
    0.7762   -5.8682    1.4080 C   0  0  0  0  0  4           0  0  0
   -5.4987    1.3378    3.9403 C   0  0  0  0  0  4           0  0  0
   -6.0144    1.4179    6.7323 C   0  0  0  0  0  4           0  0  0
    2.5672   -3.8013    2.0237 C   0  0  0  0  0  4           0  0  0
    0.8269   -4.7360    0.5981 C   0  0  0  0  0  4           0  0  0
   -6.7806    1.6175    4.4340 C   0  0  0  0  0  4           0  0  0
   -7.0363    1.6575    5.8161 C   0  0  0  0  0  4           0  0  0
    1.7814   -2.5101    0.0532 C   0  0  0  0  0  4           0  0  0
   -2.3805    0.6510    3.5144 C   0  0  0  0  0  4           0  0  0
   -2.1425    0.0000    1.1028 C   0  0  0  0  0  4           0  0  0
   -0.2874    1.1415    2.1289 C   0  0  0  0  0  4           0  0  0
   -0.0000    0.0000    0.0000 C   0  0  0  0  0  4           0  0  0
   -2.9301    0.2008    2.3692 C   0  0  0  0  0  4           0  0  0
    2.1722   -1.1973    0.6912 C   0  0  0  0  0  4           0  0  0
   -0.9094    1.0171    3.5288 C   0  0  0  0  0  4           0  0  0
    1.5329   -0.0000   -0.0000 C   0  0  0  0  0  4           0  0  0
  1  7  1  0     0  0
  2  8  2  0     0  0
  3 20  2  0     0  0
  4  8  1  0     0  0
  4  9  1  0     0  0
  4 21  1  0     0  0
  5  8  1  0     0  0
  5 10  1  0     0  0
  6 22  1  0     0  0
  6 23  1  0     0  0
  6 24  1  0     0  0
  7 12  2  0     0  0
  7 13  1  0     0  0
  9 10  2  0     0  0
  9 14  1  0     0  0
 10 15  1  0     0  0
 11 16  2  0     0  0
 11 17  1  0     0  0
 11 20  1  0     0  0
 12 16  1  0     0  0
 13 17  2  0     0  0
 14 18  2  0     0  0
 15 19  2  0     0  0
 18 19  1  0     0  0
 20 26  1  0     0  0
 21 25  2  0     0  0
 21 27  1  0     0  0
 22 25  1  0     0  0
 23 27  1  0     0  0
 24 28  1  0     0  0
 26 28  1  0     0  0
M  END
> <standard_type>
pIC50

> <# Confs.>
25

> <canonical_smiles>
O=C(N1)N(C2=CCN(CCCC(C3=CC=C(F)C=C3)=O)CC2)C4=C1C=CC=C4

> <standard_relation>
=

> <Publication_ID>
nan

> <predicted_activity_value>
nan

> <actual_activity_value>
1.494850021680094

> <Compound>
Droperidol

> <standard_units>
uM

> hash
9634425843547044804

$$$$
18
XXILIB    08252103503D 0   0.00000     0.00000

 28 31  0     1  0            999 V2000
    1.5532    7.0363    3.3099 F   0  0  0  0  0  1           0  0  0
   -3.9896    1.2918    4.9526 O   0  0  0  0  0  2           0  0  0
    1.5132    2.6150   -1.1408 O   0  0  0  0  0  2           0  0  0
   -2.9701   -0.8890    4.7546 N   0  0  2  0  0  3           0  0  0
   -4.3354   -0.4033    6.5350 N   0  0  0  0  0  3           0  0  0
   -0.6825    0.0000    1.2956 N   0  0  2  0  0  3           0  0  0
    1.6090    5.9495    2.5270 C   0  0  0  0  0  4           0  0  0
   -3.7865    0.1522    5.3522 C   0  0  0  0  0  4           0  0  0
   -3.0653   -2.0296    5.6007 C   0  0  0  0  0  4           0  0  0
   -3.8965   -1.7124    6.6745 C   0  0  0  0  0  4           0  0  0
    1.7245    3.7137    0.9158 C   0  0  0  0  0  4           0  0  0
    2.5100    4.9314    2.8342 C   0  0  0  0  0  4           0  0  0
    0.7650    5.8593    1.4215 C   0  0  0  0  0  4           0  0  0
   -2.5047   -3.2916    5.5175 C   0  0  0  0  0  4           0  0  0
   -4.2033   -2.5998    7.6864 C   0  0  0  0  0  4           0  0  0
    2.5702    3.8006    2.0230 C   0  0  0  0  0  4           0  0  0
    0.8202    4.7311    0.6064 C   0  0  0  0  0  4           0  0  0
   -2.8011   -4.2143    6.5304 C   0  0  0  0  0  4           0  0  0
   -3.6422   -3.8724    7.6042 C   0  0  0  0  0  4           0  0  0
    1.7814    2.5101    0.0532 C   0  0  0  0  0  4           0  0  0
   -2.2581   -0.7309    3.5790 C   0  0  0  0  0  4           0  0  0
   -0.3090   -1.1964    2.0687 C   0  0  0  0  0  4           0  0  0
   -2.1414    0.0683    1.1522 C   0  0  0  0  0  4           0  0  0
    0.0000   -0.0000    0.0000 C   0  0  0  0  0  4           0  0  0
   -1.1090   -1.3892    3.3285 C   0  0  0  0  0  4           0  0  0
    2.1722    1.1973    0.6912 C   0  0  0  0  0  4           0  0  0
   -2.8037    0.2191    2.5309 C   0  0  0  0  0  4           0  0  0
    1.5329    0.0000   -0.0000 C   0  0  0  0  0  4           0  0  0
  1  7  1  0     0  0
  2  8  2  0     0  0
  3 20  2  0     0  0
  4  8  1  0     0  0
  4  9  1  0     0  0
  4 21  1  0     0  0
  5  8  1  0     0  0
  5 10  1  0     0  0
  6 22  1  0     0  0
  6 23  1  0     0  0
  6 24  1  0     0  0
  7 12  2  0     0  0
  7 13  1  0     0  0
  9 10  2  0     0  0
  9 14  1  0     0  0
 10 15  1  0     0  0
 11 16  2  0     0  0
 11 17  1  0     0  0
 11 20  1  0     0  0
 12 16  1  0     0  0
 13 17  2  0     0  0
 14 18  2  0     0  0
 15 19  2  0     0  0
 18 19  1  0     0  0
 20 26  1  0     0  0
 21 25  2  0     0  0
 21 27  1  0     0  0
 22 25  1  0     0  0
 23 27  1  0     0  0
 24 28  1  0     0  0
 26 28  1  0     0  0
M  END
> <standard_type>
pIC50

> <# Confs.>
25

> <canonical_smiles>
O=C(N1)N(C2=CCN(CCCC(C3=CC=C(F)C=C3)=O)CC2)C4=C1C=CC=C4

> <standard_relation>
=

> <Publication_ID>
nan

> <predicted_activity_value>
nan

> <actual_activity_value>
1.494850021680094

> <Compound>
Droperidol

> <standard_units>
uM

> hash
9634425843547044804

$$$$
18
XXILIB    08252103503D 0   0.00000     0.00000

 28 31  0     1  0            999 V2000
    1.5674   -7.0496    3.2924 F   0  0  0  0  0  1           0  0  0
   -3.9827   -1.2901    4.9575 O   0  0  0  0  0  2           0  0  0
    1.5132   -2.6150   -1.1408 O   0  0  0  0  0  2           0  0  0
   -2.9631    0.8905    4.7583 N   0  0  2  0  0  3           0  0  0
   -4.3344    0.4082    6.5350 N   0  0  0  0  0  3           0  0  0
   -0.6825    0.0000    1.2956 N   0  0  2  0  0  3           0  0  0
    1.6181   -5.9585    2.5150 C   0  0  0  0  0  4           0  0  0
   -3.7814   -0.1496    5.3553 C   0  0  0  0  0  4           0  0  0
   -3.0543    2.0299    5.6064 C   0  0  0  0  0  4           0  0  0
   -3.8917    1.7158    6.6763 C   0  0  0  0  0  4           0  0  0
    1.7219   -3.7132    0.9164 C   0  0  0  0  0  4           0  0  0
    2.5118   -4.9362    2.8295 C   0  0  0  0  0  4           0  0  0
    0.7762   -5.8682    1.4080 C   0  0  0  0  0  4           0  0  0
   -2.4827    3.2874    5.5297 C   0  0  0  0  0  4           0  0  0
   -4.1954    2.6026    7.6897 C   0  0  0  0  0  4           0  0  0
    2.5672   -3.8013    2.0237 C   0  0  0  0  0  4           0  0  0
    0.8269   -4.7360    0.5981 C   0  0  0  0  0  4           0  0  0
   -2.7718    4.2077    6.5469 C   0  0  0  0  0  4           0  0  0
   -3.6194    3.8691    7.6165 C   0  0  0  0  0  4           0  0  0
    1.7814   -2.5101    0.0532 C   0  0  0  0  0  4           0  0  0
   -2.2543    0.7330    3.5806 C   0  0  0  0  0  4           0  0  0
   -0.3078    1.1971    2.0671 C   0  0  0  0  0  4           0  0  0
   -2.1416   -0.0657    1.1530 C   0  0  0  0  0  4           0  0  0
    0.0000    0.0000    0.0000 C   0  0  0  0  0  4           0  0  0
   -1.1039    1.3884    3.3295 C   0  0  0  0  0  4           0  0  0
    2.1722   -1.1973    0.6912 C   0  0  0  0  0  4           0  0  0
   -2.8053   -0.2124    2.5316 C   0  0  0  0  0  4           0  0  0
    1.5329   -0.0000   -0.0000 C   0  0  0  0  0  4           0  0  0
  1  7  1  0     0  0
  2  8  2  0     0  0
  3 20  2  0     0  0
  4  8  1  0     0  0
  4  9  1  0     0  0
  4 21  1  0     0  0
  5  8  1  0     0  0
  5 10  1  0     0  0
  6 22  1  0     0  0
  6 23  1  0     0  0
  6 24  1  0     0  0
  7 12  2  0     0  0
  7 13  1  0     0  0
  9 10  2  0     0  0
  9 14  1  0     0  0
 10 15  1  0     0  0
 11 16  2  0     0  0
 11 17  1  0     0  0
 11 20  1  0     0  0
 12 16  1  0     0  0
 13 17  2  0     0  0
 14 18  2  0     0  0
 15 19  2  0     0  0
 18 19  1  0     0  0
 20 26  1  0     0  0
 21 25  2  0     0  0
 21 27  1  0     0  0
 22 25  1  0     0  0
 23 27  1  0     0  0
 24 28  1  0     0  0
 26 28  1  0     0  0
M  END
> <standard_type>
pIC50

> <# Confs.>
25

> <canonical_smiles>
O=C(N1)N(C2=CCN(CCCC(C3=CC=C(F)C=C3)=O)CC2)C4=C1C=CC=C4

> <standard_relation>
=

> <Publication_ID>
nan

> <predicted_activity_value>
nan

> <actual_activity_value>
1.494850021680094

> <Compound>
Droperidol

> <standard_units>
uM

> hash
9634425843547044804

$$$$
18
XXILIB    08252103503D 0   0.00000     0.00000

 28 31  0     1  0            999 V2000
    1.5532    7.0363    3.3099 F   0  0  0  0  0  1           0  0  0
   -1.3843   -0.4055    6.3263 O   0  0  0  0  0  2           0  0  0
    1.5132    2.6150   -1.1408 O   0  0  0  0  0  2           0  0  0
   -3.1095   -0.7950    4.6812 N   0  0  2  0  0  3           0  0  0
   -3.6001   -0.8874    6.9218 N   0  0  0  0  0  3           0  0  0
   -0.6825   -0.0000    1.2956 N   0  0  2  0  0  3           0  0  0
    1.6090    5.9495    2.5270 C   0  0  0  0  0  4           0  0  0
   -2.5393   -0.6610    6.0096 C   0  0  0  0  0  4           0  0  0
   -4.4912   -1.0921    4.8494 C   0  0  0  0  0  4           0  0  0
   -4.7665   -1.1450    6.2154 C   0  0  0  0  0  4           0  0  0
    1.7245    3.7137    0.9158 C   0  0  0  0  0  4           0  0  0
    2.5100    4.9314    2.8342 C   0  0  0  0  0  4           0  0  0
    0.7650    5.8593    1.4215 C   0  0  0  0  0  4           0  0  0
   -5.5068   -1.3139    3.9366 C   0  0  0  0  0  4           0  0  0
   -6.0199   -1.4120    6.7285 C   0  0  0  0  0  4           0  0  0
    2.5702    3.8006    2.0230 C   0  0  0  0  0  4           0  0  0
    0.8202    4.7311    0.6064 C   0  0  0  0  0  4           0  0  0
   -6.7908   -1.5850    4.4296 C   0  0  0  0  0  4           0  0  0
   -7.0454   -1.6334    5.8117 C   0  0  0  0  0  4           0  0  0
    1.7814    2.5101    0.0532 C   0  0  0  0  0  4           0  0  0
   -2.3838   -0.6484    3.5124 C   0  0  0  0  0  4           0  0  0
   -2.1422    0.0000    1.1008 C   0  0  0  0  0  4           0  0  0
   -0.2898   -1.1427    2.1285 C   0  0  0  0  0  4           0  0  0
    0.0000    0.0000    0.0000 C   0  0  0  0  0  4           0  0  0
   -2.9310   -0.1961    2.3670 C   0  0  0  0  0  4           0  0  0
    2.1722    1.1973    0.6912 C   0  0  0  0  0  4           0  0  0
   -0.9146   -1.0214    3.5276 C   0  0  0  0  0  4           0  0  0
    1.5329    0.0000   -0.0000 C   0  0  0  0  0  4           0  0  0
  1  7  1  0     0  0
  2  8  2  0     0  0
  3 20  2  0     0  0
  4  8  1  0     0  0
  4  9  1  0     0  0
  4 21  1  0     0  0
  5  8  1  0     0  0
  5 10  1  0     0  0
  6 22  1  0     0  0
  6 23  1  0     0  0
  6 24  1  0     0  0
  7 12  2  0     0  0
  7 13  1  0     0  0
  9 10  2  0     0  0
  9 14  1  0     0  0
 10 15  1  0     0  0
 11 16  2  0     0  0
 11 17  1  0     0  0
 11 20  1  0     0  0
 12 16  1  0     0  0
 13 17  2  0     0  0
 14 18  2  0     0  0
 15 19  2  0     0  0
 18 19  1  0     0  0
 20 26  1  0     0  0
 21 25  2  0     0  0
 21 27  1  0     0  0
 22 25  1  0     0  0
 23 27  1  0     0  0
 24 28  1  0     0  0
 26 28  1  0     0  0
M  END
> <standard_type>
pIC50

> <# Confs.>
25

> <canonical_smiles>
O=C(N1)N(C2=CCN(CCCC(C3=CC=C(F)C=C3)=O)CC2)C4=C1C=CC=C4

> <standard_relation>
=

> <Publication_ID>
nan

> <predicted_activity_value>
nan

> <actual_activity_value>
1.494850021680094

> <Compound>
Droperidol

> <standard_units>
uM

> hash
9634425843547044804

$$$$
18
XXILIB    08252103503D 0   0.00000     0.00000

 28 31  0     1  0            999 V2000
    1.5430   -7.0461    3.2956 F   0  0  0  0  0  1           0  0  0
   -1.3789    0.4119    6.3279 O   0  0  0  0  0  2           0  0  0
    1.5132   -2.6150   -1.1408 O   0  0  0  0  0  2           0  0  0
   -3.1049    0.8011    4.6836 N   0  0  2  0  0  3           0  0  0
   -3.5962    0.8856    6.9244 N   0  0  0  0  0  3           0  0  0
   -0.6825    0.0000    1.2956 N   0  0  2  0  0  3           0  0  0
    1.6013   -5.9561    2.5173 C   0  0  0  0  0  4           0  0  0
   -2.5346    0.6648    6.0118 C   0  0  0  0  0  4           0  0  0
   -4.4856    1.1027    4.8525 C   0  0  0  0  0  4           0  0  0
   -4.7620    1.1476    6.2186 C   0  0  0  0  0  4           0  0  0
    1.7219   -3.7132    0.9164 C   0  0  0  0  0  4           0  0  0
    2.4795   -5.9351    1.4351 C   0  0  0  0  0  4           0  0  0
    0.7826   -4.8656    2.8057 C   0  0  0  0  0  4           0  0  0
   -5.4987    1.3378    3.9403 C   0  0  0  0  0  4           0  0  0
   -6.0144    1.4179    6.7323 C   0  0  0  0  0  4           0  0  0
    2.5422   -4.8042    0.6242 C   0  0  0  0  0  4           0  0  0
    0.8404   -3.7318    1.9986 C   0  0  0  0  0  4           0  0  0
   -6.7806    1.6175    4.4340 C   0  0  0  0  0  4           0  0  0
   -7.0363    1.6575    5.8161 C   0  0  0  0  0  4           0  0  0
    1.7814   -2.5101    0.0532 C   0  0  0  0  0  4           0  0  0
   -2.3805    0.6510    3.5144 C   0  0  0  0  0  4           0  0  0
   -2.1425    0.0000    1.1028 C   0  0  0  0  0  4           0  0  0
   -0.2874    1.1415    2.1289 C   0  0  0  0  0  4           0  0  0
   -0.0000    0.0000    0.0000 C   0  0  0  0  0  4           0  0  0
   -2.9301    0.2008    2.3692 C   0  0  0  0  0  4           0  0  0
    2.1722   -1.1973    0.6912 C   0  0  0  0  0  4           0  0  0
   -0.9094    1.0171    3.5288 C   0  0  0  0  0  4           0  0  0
    1.5329   -0.0000   -0.0000 C   0  0  0  0  0  4           0  0  0
  1  7  1  0     0  0
  2  8  2  0     0  0
  3 20  2  0     0  0
  4  8  1  0     0  0
  4  9  1  0     0  0
  4 21  1  0     0  0
  5  8  1  0     0  0
  5 10  1  0     0  0
  6 22  1  0     0  0
  6 23  1  0     0  0
  6 24  1  0     0  0
  7 12  2  0     0  0
  7 13  1  0     0  0
  9 10  2  0     0  0
  9 14  1  0     0  0
 10 15  1  0     0  0
 11 16  2  0     0  0
 11 17  1  0     0  0
 11 20  1  0     0  0
 12 16  1  0     0  0
 13 17  2  0     0  0
 14 18  2  0     0  0
 15 19  2  0     0  0
 18 19  1  0     0  0
 20 26  1  0     0  0
 21 25  2  0     0  0
 21 27  1  0     0  0
 22 25  1  0     0  0
 23 27  1  0     0  0
 24 28  1  0     0  0
 26 28  1  0     0  0
M  END
> <standard_type>
pIC50

> <# Confs.>
25

> <canonical_smiles>
O=C(N1)N(C2=CCN(CCCC(C3=CC=C(F)C=C3)=O)CC2)C4=C1C=CC=C4

> <standard_relation>
=

> <Publication_ID>
nan

> <predicted_activity_value>
nan

> <actual_activity_value>
1.494850021680094

> <Compound>
Droperidol

> <standard_units>
uM

> hash
9634425843547044804

$$$$
18
XXILIB    08252103503D 0   0.00000     0.00000

 28 31  0     1  0            999 V2000
    1.5430   -7.0461    3.2956 F   0  0  0  0  0  1           0  0  0
   -3.9827   -1.2901    4.9575 O   0  0  0  0  0  2           0  0  0
    1.5132   -2.6150   -1.1408 O   0  0  0  0  0  2           0  0  0
   -2.9631    0.8905    4.7583 N   0  0  2  0  0  3           0  0  0
   -4.3344    0.4082    6.5350 N   0  0  0  0  0  3           0  0  0
   -0.6825    0.0000    1.2956 N   0  0  2  0  0  3           0  0  0
    1.6013   -5.9561    2.5173 C   0  0  0  0  0  4           0  0  0
   -3.7814   -0.1496    5.3553 C   0  0  0  0  0  4           0  0  0
   -3.0543    2.0299    5.6064 C   0  0  0  0  0  4           0  0  0
   -3.8917    1.7158    6.6763 C   0  0  0  0  0  4           0  0  0
    1.7219   -3.7132    0.9164 C   0  0  0  0  0  4           0  0  0
    2.4795   -5.9351    1.4351 C   0  0  0  0  0  4           0  0  0
    0.7826   -4.8656    2.8057 C   0  0  0  0  0  4           0  0  0
   -2.4827    3.2874    5.5297 C   0  0  0  0  0  4           0  0  0
   -4.1954    2.6026    7.6897 C   0  0  0  0  0  4           0  0  0
    2.5422   -4.8042    0.6242 C   0  0  0  0  0  4           0  0  0
    0.8404   -3.7318    1.9986 C   0  0  0  0  0  4           0  0  0
   -2.7718    4.2077    6.5469 C   0  0  0  0  0  4           0  0  0
   -3.6194    3.8691    7.6165 C   0  0  0  0  0  4           0  0  0
    1.7814   -2.5101    0.0532 C   0  0  0  0  0  4           0  0  0
   -2.2543    0.7330    3.5806 C   0  0  0  0  0  4           0  0  0
   -0.3078    1.1971    2.0671 C   0  0  0  0  0  4           0  0  0
   -2.1416   -0.0657    1.1530 C   0  0  0  0  0  4           0  0  0
    0.0000    0.0000    0.0000 C   0  0  0  0  0  4           0  0  0
   -1.1039    1.3884    3.3295 C   0  0  0  0  0  4           0  0  0
    2.1722   -1.1973    0.6912 C   0  0  0  0  0  4           0  0  0
   -2.8053   -0.2124    2.5316 C   0  0  0  0  0  4           0  0  0
    1.5329   -0.0000   -0.0000 C   0  0  0  0  0  4           0  0  0
  1  7  1  0     0  0
  2  8  2  0     0  0
  3 20  2  0     0  0
  4  8  1  0     0  0
  4  9  1  0     0  0
  4 21  1  0     0  0
  5  8  1  0     0  0
  5 10  1  0     0  0
  6 22  1  0     0  0
  6 23  1  0     0  0
  6 24  1  0     0  0
  7 12  2  0     0  0
  7 13  1  0     0  0
  9 10  2  0     0  0
  9 14  1  0     0  0
 10 15  1  0     0  0
 11 16  2  0     0  0
 11 17  1  0     0  0
 11 20  1  0     0  0
 12 16  1  0     0  0
 13 17  2  0     0  0
 14 18  2  0     0  0
 15 19  2  0     0  0
 18 19  1  0     0  0
 20 26  1  0     0  0
 21 25  2  0     0  0
 21 27  1  0     0  0
 22 25  1  0     0  0
 23 27  1  0     0  0
 24 28  1  0     0  0
 26 28  1  0     0  0
M  END
> <standard_type>
pIC50

> <# Confs.>
25

> <canonical_smiles>
O=C(N1)N(C2=CCN(CCCC(C3=CC=C(F)C=C3)=O)CC2)C4=C1C=CC=C4

> <standard_relation>
=

> <Publication_ID>
nan

> <predicted_activity_value>
nan

> <actual_activity_value>
1.494850021680094

> <Compound>
Droperidol

> <standard_units>
uM

> hash
9634425843547044804

$$$$
18
XXILIB    08252103503D 0   0.00000     0.00000

 28 31  0     1  0            999 V2000
    6.5028    5.3208    3.0580 F   0  0  0  0  0  1           0  0  0
   -3.9896    1.2918    4.9526 O   0  0  0  0  0  2           0  0  0
    4.3045    0.2275    0.1314 O   0  0  0  0  0  2           0  0  0
   -2.9701   -0.8890    4.7546 N   0  0  2  0  0  3           0  0  0
   -4.3354   -0.4033    6.5350 N   0  0  0  0  0  3           0  0  0
   -0.6825    0.0000    1.2956 N   0  0  2  0  0  3           0  0  0
    5.8250    4.3171    2.4832 C   0  0  0  0  0  4           0  0  0
   -3.7865    0.1522    5.3522 C   0  0  0  0  0  4           0  0  0
   -3.0653   -2.0296    5.6007 C   0  0  0  0  0  4           0  0  0
   -3.8965   -1.7124    6.6745 C   0  0  0  0  0  4           0  0  0
    4.4304    2.2515    1.3015 C   0  0  0  0  0  4           0  0  0
    4.4314    4.3355    2.5001 C   0  0  0  0  0  4           0  0  0
    6.5273    3.2751    1.8802 C   0  0  0  0  0  4           0  0  0
   -2.5047   -3.2916    5.5175 C   0  0  0  0  0  4           0  0  0
   -4.2033   -2.5998    7.6864 C   0  0  0  0  0  4           0  0  0
    3.7242    3.2943    1.9035 C   0  0  0  0  0  4           0  0  0
    5.8260    2.2310    1.2817 C   0  0  0  0  0  4           0  0  0
   -2.8011   -4.2143    6.5304 C   0  0  0  0  0  4           0  0  0
   -3.6422   -3.8724    7.6042 C   0  0  0  0  0  4           0  0  0
    3.6821    1.1445    0.6608 C   0  0  0  0  0  4           0  0  0
   -2.2581   -0.7309    3.5790 C   0  0  0  0  0  4           0  0  0
   -0.3090   -1.1964    2.0687 C   0  0  0  0  0  4           0  0  0
   -2.1414    0.0683    1.1522 C   0  0  0  0  0  4           0  0  0
    0.0000   -0.0000    0.0000 C   0  0  0  0  0  4           0  0  0
   -1.1090   -1.3892    3.3285 C   0  0  0  0  0  4           0  0  0
    2.1722    1.1973    0.6912 C   0  0  0  0  0  4           0  0  0
   -2.8037    0.2191    2.5309 C   0  0  0  0  0  4           0  0  0
    1.5329    0.0000    0.0000 C   0  0  0  0  0  4           0  0  0
  1  7  1  0     0  0
  2  8  2  0     0  0
  3 20  2  0     0  0
  4  8  1  0     0  0
  4  9  1  0     0  0
  4 21  1  0     0  0
  5  8  1  0     0  0
  5 10  1  0     0  0
  6 22  1  0     0  0
  6 23  1  0     0  0
  6 24  1  0     0  0
  7 12  2  0     0  0
  7 13  1  0     0  0
  9 10  2  0     0  0
  9 14  1  0     0  0
 10 15  1  0     0  0
 11 16  2  0     0  0
 11 17  1  0     0  0
 11 20  1  0     0  0
 12 16  1  0     0  0
 13 17  2  0     0  0
 14 18  2  0     0  0
 15 19  2  0     0  0
 18 19  1  0     0  0
 20 26  1  0     0  0
 21 25  2  0     0  0
 21 27  1  0     0  0
 22 25  1  0     0  0
 23 27  1  0     0  0
 24 28  1  0     0  0
 26 28  1  0     0  0
M  END
> <standard_type>
pIC50

> <# Confs.>
25

> <canonical_smiles>
O=C(N1)N(C2=CCN(CCCC(C3=CC=C(F)C=C3)=O)CC2)C4=C1C=CC=C4

> <standard_relation>
=

> <Publication_ID>
nan

> <predicted_activity_value>
nan

> <actual_activity_value>
1.494850021680094

> <Compound>
Droperidol

> <standard_units>
uM

> hash
9634425843547044804

$$$$
18
XXILIB    08252103503D 0   0.00000     0.00000

 28 31  0     1  0            999 V2000
    1.5777    7.0348    3.3137 F   0  0  0  0  0  1           0  0  0
   -3.9896    1.2918    4.9526 O   0  0  0  0  0  2           0  0  0
    1.5132    2.6150   -1.1408 O   0  0  0  0  0  2           0  0  0
   -2.9701   -0.8890    4.7546 N   0  0  2  0  0  3           0  0  0
   -4.3354   -0.4033    6.5350 N   0  0  0  0  0  3           0  0  0
   -0.6825    0.0000    1.2956 N   0  0  2  0  0  3           0  0  0
    1.6259    5.9484    2.5296 C   0  0  0  0  0  4           0  0  0
   -3.7865    0.1522    5.3522 C   0  0  0  0  0  4           0  0  0
   -3.0653   -2.0296    5.6007 C   0  0  0  0  0  4           0  0  0
   -3.8965   -1.7124    6.6745 C   0  0  0  0  0  4           0  0  0
    1.7245    3.7137    0.9158 C   0  0  0  0  0  4           0  0  0
    2.4943    5.9303    1.4395 C   0  0  0  0  0  4           0  0  0
    0.8067    4.8588    2.8201 C   0  0  0  0  0  4           0  0  0
   -2.5047   -3.2916    5.5175 C   0  0  0  0  0  4           0  0  0
   -4.2033   -2.5998    7.6864 C   0  0  0  0  0  4           0  0  0
    2.5470    4.8029    0.6230 C   0  0  0  0  0  4           0  0  0
    0.8549    3.7284    2.0076 C   0  0  0  0  0  4           0  0  0
   -2.8011   -4.2143    6.5304 C   0  0  0  0  0  4           0  0  0
   -3.6422   -3.8724    7.6042 C   0  0  0  0  0  4           0  0  0
    1.7814    2.5101    0.0532 C   0  0  0  0  0  4           0  0  0
   -2.2581   -0.7309    3.5790 C   0  0  0  0  0  4           0  0  0
   -0.3090   -1.1964    2.0687 C   0  0  0  0  0  4           0  0  0
   -2.1414    0.0683    1.1522 C   0  0  0  0  0  4           0  0  0
    0.0000   -0.0000    0.0000 C   0  0  0  0  0  4           0  0  0
   -1.1090   -1.3892    3.3285 C   0  0  0  0  0  4           0  0  0
    2.1722    1.1973    0.6912 C   0  0  0  0  0  4           0  0  0
   -2.8037    0.2191    2.5309 C   0  0  0  0  0  4           0  0  0
    1.5329    0.0000   -0.0000 C   0  0  0  0  0  4           0  0  0
  1  7  1  0     0  0
  2  8  2  0     0  0
  3 20  2  0     0  0
  4  8  1  0     0  0
  4  9  1  0     0  0
  4 21  1  0     0  0
  5  8  1  0     0  0
  5 10  1  0     0  0
  6 22  1  0     0  0
  6 23  1  0     0  0
  6 24  1  0     0  0
  7 12  2  0     0  0
  7 13  1  0     0  0
  9 10  2  0     0  0
  9 14  1  0     0  0
 10 15  1  0     0  0
 11 16  2  0     0  0
 11 17  1  0     0  0
 11 20  1  0     0  0
 12 16  1  0     0  0
 13 17  2  0     0  0
 14 18  2  0     0  0
 15 19  2  0     0  0
 18 19  1  0     0  0
 20 26  1  0     0  0
 21 25  2  0     0  0
 21 27  1  0     0  0
 22 25  1  0     0  0
 23 27  1  0     0  0
 24 28  1  0     0  0
 26 28  1  0     0  0
M  END
> <standard_type>
pIC50

> <# Confs.>
25

> <canonical_smiles>
O=C(N1)N(C2=CCN(CCCC(C3=CC=C(F)C=C3)=O)CC2)C4=C1C=CC=C4

> <standard_relation>
=

> <Publication_ID>
nan

> <predicted_activity_value>
nan

> <actual_activity_value>
1.494850021680094

> <Compound>
Droperidol

> <standard_units>
uM

> hash
9634425843547044804

$$$$
18
XXILIB    08252103503D 0   0.00000     0.00000

 28 31  0     1  0            999 V2000
    6.5028   -5.3087    3.0790 F   0  0  0  0  0  1           0  0  0
   -3.9827   -1.2901    4.9575 O   0  0  0  0  0  2           0  0  0
    4.3045   -0.2275    0.1314 O   0  0  0  0  0  2           0  0  0
   -2.9631    0.8905    4.7583 N   0  0  2  0  0  3           0  0  0
   -4.3344    0.4082    6.5350 N   0  0  0  0  0  3           0  0  0
   -0.6825    0.0000    1.2956 N   0  0  2  0  0  3           0  0  0
    5.8250   -4.3091    2.4971 C   0  0  0  0  0  4           0  0  0
   -3.7814   -0.1496    5.3553 C   0  0  0  0  0  4           0  0  0
   -3.0543    2.0299    5.6064 C   0  0  0  0  0  4           0  0  0
   -3.8917    1.7158    6.6763 C   0  0  0  0  0  4           0  0  0
    4.4304   -2.2529    1.2991 C   0  0  0  0  0  4           0  0  0
    4.4314   -4.3329    2.5046 C   0  0  0  0  0  4           0  0  0
    6.5273   -3.2659    1.8962 C   0  0  0  0  0  4           0  0  0
   -2.4827    3.2874    5.5297 C   0  0  0  0  0  4           0  0  0
   -4.1954    2.6026    7.6897 C   0  0  0  0  0  4           0  0  0
    3.7242   -3.2956    1.9012 C   0  0  0  0  0  4           0  0  0
    5.8260   -2.2255    1.2912 C   0  0  0  0  0  4           0  0  0
   -2.7718    4.2077    6.5469 C   0  0  0  0  0  4           0  0  0
   -3.6194    3.8691    7.6165 C   0  0  0  0  0  4           0  0  0
    3.6821   -1.1445    0.6608 C   0  0  0  0  0  4           0  0  0
   -2.2543    0.7330    3.5806 C   0  0  0  0  0  4           0  0  0
   -0.3078    1.1971    2.0671 C   0  0  0  0  0  4           0  0  0
   -2.1416   -0.0657    1.1530 C   0  0  0  0  0  4           0  0  0
    0.0000    0.0000    0.0000 C   0  0  0  0  0  4           0  0  0
   -1.1039    1.3884    3.3295 C   0  0  0  0  0  4           0  0  0
    2.1722   -1.1973    0.6912 C   0  0  0  0  0  4           0  0  0
   -2.8053   -0.2124    2.5316 C   0  0  0  0  0  4           0  0  0
    1.5329   -0.0000    0.0000 C   0  0  0  0  0  4           0  0  0
  1  7  1  0     0  0
  2  8  2  0     0  0
  3 20  2  0     0  0
  4  8  1  0     0  0
  4  9  1  0     0  0
  4 21  1  0     0  0
  5  8  1  0     0  0
  5 10  1  0     0  0
  6 22  1  0     0  0
  6 23  1  0     0  0
  6 24  1  0     0  0
  7 12  2  0     0  0
  7 13  1  0     0  0
  9 10  2  0     0  0
  9 14  1  0     0  0
 10 15  1  0     0  0
 11 16  2  0     0  0
 11 17  1  0     0  0
 11 20  1  0     0  0
 12 16  1  0     0  0
 13 17  2  0     0  0
 14 18  2  0     0  0
 15 19  2  0     0  0
 18 19  1  0     0  0
 20 26  1  0     0  0
 21 25  2  0     0  0
 21 27  1  0     0  0
 22 25  1  0     0  0
 23 27  1  0     0  0
 24 28  1  0     0  0
 26 28  1  0     0  0
M  END
> <standard_type>
pIC50

> <# Confs.>
25

> <canonical_smiles>
O=C(N1)N(C2=CCN(CCCC(C3=CC=C(F)C=C3)=O)CC2)C4=C1C=CC=C4

> <standard_relation>
=

> <Publication_ID>
nan

> <predicted_activity_value>
nan

> <actual_activity_value>
1.494850021680094

> <Compound>
Droperidol

> <standard_units>
uM

> hash
9634425843547044804

$$$$
18
XXILIB    08252103503D 0   0.00000     0.00000

 28 31  0     1  0            999 V2000
    1.5777    7.0348    3.3137 F   0  0  0  0  0  1           0  0  0
   -1.3843   -0.4055    6.3263 O   0  0  0  0  0  2           0  0  0
    1.5132    2.6150   -1.1408 O   0  0  0  0  0  2           0  0  0
   -3.1095   -0.7950    4.6812 N   0  0  2  0  0  3           0  0  0
   -3.6001   -0.8874    6.9218 N   0  0  0  0  0  3           0  0  0
   -0.6825   -0.0000    1.2956 N   0  0  2  0  0  3           0  0  0
    1.6259    5.9484    2.5296 C   0  0  0  0  0  4           0  0  0
   -2.5393   -0.6610    6.0096 C   0  0  0  0  0  4           0  0  0
   -4.4912   -1.0921    4.8494 C   0  0  0  0  0  4           0  0  0
   -4.7665   -1.1450    6.2154 C   0  0  0  0  0  4           0  0  0
    1.7245    3.7137    0.9158 C   0  0  0  0  0  4           0  0  0
    2.4943    5.9303    1.4395 C   0  0  0  0  0  4           0  0  0
    0.8067    4.8588    2.8201 C   0  0  0  0  0  4           0  0  0
   -5.5068   -1.3139    3.9366 C   0  0  0  0  0  4           0  0  0
   -6.0199   -1.4120    6.7285 C   0  0  0  0  0  4           0  0  0
    2.5470    4.8029    0.6230 C   0  0  0  0  0  4           0  0  0
    0.8549    3.7284    2.0076 C   0  0  0  0  0  4           0  0  0
   -6.7908   -1.5850    4.4296 C   0  0  0  0  0  4           0  0  0
   -7.0454   -1.6334    5.8117 C   0  0  0  0  0  4           0  0  0
    1.7814    2.5101    0.0532 C   0  0  0  0  0  4           0  0  0
   -2.3838   -0.6484    3.5124 C   0  0  0  0  0  4           0  0  0
   -2.1422    0.0000    1.1008 C   0  0  0  0  0  4           0  0  0
   -0.2898   -1.1427    2.1285 C   0  0  0  0  0  4           0  0  0
    0.0000    0.0000    0.0000 C   0  0  0  0  0  4           0  0  0
   -2.9310   -0.1961    2.3670 C   0  0  0  0  0  4           0  0  0
    2.1722    1.1973    0.6912 C   0  0  0  0  0  4           0  0  0
   -0.9146   -1.0214    3.5276 C   0  0  0  0  0  4           0  0  0
    1.5329    0.0000   -0.0000 C   0  0  0  0  0  4           0  0  0
  1  7  1  0     0  0
  2  8  2  0     0  0
  3 20  2  0     0  0
  4  8  1  0     0  0
  4  9  1  0     0  0
  4 21  1  0     0  0
  5  8  1  0     0  0
  5 10  1  0     0  0
  6 22  1  0     0  0
  6 23  1  0     0  0
  6 24  1  0     0  0
  7 12  2  0     0  0
  7 13  1  0     0  0
  9 10  2  0     0  0
  9 14  1  0     0  0
 10 15  1  0     0  0
 11 16  2  0     0  0
 11 17  1  0     0  0
 11 20  1  0     0  0
 12 16  1  0     0  0
 13 17  2  0     0  0
 14 18  2  0     0  0
 15 19  2  0     0  0
 18 19  1  0     0  0
 20 26  1  0     0  0
 21 25  2  0     0  0
 21 27  1  0     0  0
 22 25  1  0     0  0
 23 27  1  0     0  0
 24 28  1  0     0  0
 26 28  1  0     0  0
M  END
> <standard_type>
pIC50

> <# Confs.>
25

> <canonical_smiles>
O=C(N1)N(C2=CCN(CCCC(C3=CC=C(F)C=C3)=O)CC2)C4=C1C=CC=C4

> <standard_relation>
=

> <Publication_ID>
nan

> <predicted_activity_value>
nan

> <actual_activity_value>
1.494850021680094

> <Compound>
Droperidol

> <standard_units>
uM

> hash
9634425843547044804

$$$$
18
XXILIB    08252103503D 0   0.00000     0.00000

 28 31  0     1  0            999 V2000
    6.4835    3.5175    4.8639 F   0  0  0  0  0  1           0  0  0
   -3.9896    1.2918    4.9526 O   0  0  0  0  0  2           0  0  0
    4.3101    0.6055   -0.2467 O   0  0  0  0  0  2           0  0  0
   -2.9701   -0.8890    4.7546 N   0  0  2  0  0  3           0  0  0
   -4.3354   -0.4033    6.5350 N   0  0  0  0  0  3           0  0  0
   -0.6825    0.0000    1.2956 N   0  0  2  0  0  3           0  0  0
    5.8099    2.9468    3.8550 C   0  0  0  0  0  4           0  0  0
   -3.7865    0.1522    5.3522 C   0  0  0  0  0  4           0  0  0
   -3.0653   -2.0296    5.6007 C   0  0  0  0  0  4           0  0  0
   -3.8965   -1.7124    6.6745 C   0  0  0  0  0  4           0  0  0
    4.4233    1.7723    1.7799 C   0  0  0  0  0  4           0  0  0
    4.5671    3.4594    3.4866 C   0  0  0  0  0  4           0  0  0
    6.3654    1.8524    3.1947 C   0  0  0  0  0  4           0  0  0
   -2.5047   -3.2916    5.5175 C   0  0  0  0  0  4           0  0  0
   -4.2033   -2.5998    7.6864 C   0  0  0  0  0  4           0  0  0
    3.8648    2.8690    2.4385 C   0  0  0  0  0  4           0  0  0
    5.6682    1.2576    2.1457 C   0  0  0  0  0  4           0  0  0
   -2.8011   -4.2143    6.5304 C   0  0  0  0  0  4           0  0  0
   -3.6422   -3.8724    7.6042 C   0  0  0  0  0  4           0  0  0
    3.6821    1.1445    0.6608 C   0  0  0  0  0  4           0  0  0
   -2.2581   -0.7309    3.5790 C   0  0  0  0  0  4           0  0  0
   -0.3090   -1.1964    2.0687 C   0  0  0  0  0  4           0  0  0
   -2.1414    0.0683    1.1522 C   0  0  0  0  0  4           0  0  0
    0.0000   -0.0000    0.0000 C   0  0  0  0  0  4           0  0  0
   -1.1090   -1.3892    3.3285 C   0  0  0  0  0  4           0  0  0
    2.1722    1.1973    0.6912 C   0  0  0  0  0  4           0  0  0
   -2.8037    0.2191    2.5309 C   0  0  0  0  0  4           0  0  0
    1.5329    0.0000    0.0000 C   0  0  0  0  0  4           0  0  0
  1  7  1  0     0  0
  2  8  2  0     0  0
  3 20  2  0     0  0
  4  8  1  0     0  0
  4  9  1  0     0  0
  4 21  1  0     0  0
  5  8  1  0     0  0
  5 10  1  0     0  0
  6 22  1  0     0  0
  6 23  1  0     0  0
  6 24  1  0     0  0
  7 12  2  0     0  0
  7 13  1  0     0  0
  9 10  2  0     0  0
  9 14  1  0     0  0
 10 15  1  0     0  0
 11 16  2  0     0  0
 11 17  1  0     0  0
 11 20  1  0     0  0
 12 16  1  0     0  0
 13 17  2  0     0  0
 14 18  2  0     0  0
 15 19  2  0     0  0
 18 19  1  0     0  0
 20 26  1  0     0  0
 21 25  2  0     0  0
 21 27  1  0     0  0
 22 25  1  0     0  0
 23 27  1  0     0  0
 24 28  1  0     0  0
 26 28  1  0     0  0
M  END
> <standard_type>
pIC50

> <# Confs.>
25

> <canonical_smiles>
O=C(N1)N(C2=CCN(CCCC(C3=CC=C(F)C=C3)=O)CC2)C4=C1C=CC=C4

> <standard_relation>
=

> <Publication_ID>
nan

> <predicted_activity_value>
nan

> <actual_activity_value>
1.494850021680094

> <Compound>
Droperidol

> <standard_units>
uM

> hash
9634425843547044804

$$$$
18
XXILIB    08252103503D 0   0.00000     0.00000

 28 31  0     1  0            999 V2000
    1.5674   -7.0496    3.2924 F   0  0  0  0  0  1           0  0  0
   -1.9187    2.6392    5.7076 O   0  0  0  0  0  2           0  0  0
    1.5132   -2.6150   -1.1408 O   0  0  0  0  0  2           0  0  0
   -3.1049    0.8011    4.6836 N   0  0  2  0  0  3           0  0  0
   -3.7674    1.6170    6.7245 N   0  0  0  0  0  3           0  0  0
   -0.6825    0.0000    1.2956 N   0  0  2  0  0  3           0  0  0
    1.6181   -5.9585    2.5150 C   0  0  0  0  0  4           0  0  0
   -2.8070    1.7964    5.6977 C   0  0  0  0  0  4           0  0  0
   -4.2353    0.0668    5.1406 C   0  0  0  0  0  4           0  0  0
   -4.6194    0.5771    6.3802 C   0  0  0  0  0  4           0  0  0
    1.7219   -3.7132    0.9164 C   0  0  0  0  0  4           0  0  0
    2.5118   -4.9362    2.8295 C   0  0  0  0  0  4           0  0  0
    0.7762   -5.8682    1.4080 C   0  0  0  0  0  4           0  0  0
   -4.9433   -0.9824    4.5822 C   0  0  0  0  0  4           0  0  0
   -5.6881    0.0893    7.1050 C   0  0  0  0  0  4           0  0  0
    2.5672   -3.8013    2.0237 C   0  0  0  0  0  4           0  0  0
    0.8269   -4.7360    0.5981 C   0  0  0  0  0  4           0  0  0
   -6.0354   -1.4962    5.2954 C   0  0  0  0  0  4           0  0  0
   -6.4047   -0.9658    6.5442 C   0  0  0  0  0  4           0  0  0
    1.7814   -2.5101    0.0532 C   0  0  0  0  0  4           0  0  0
   -2.3805    0.6510    3.5144 C   0  0  0  0  0  4           0  0  0
   -2.1425    0.0000    1.1028 C   0  0  0  0  0  4           0  0  0
   -0.2874    1.1415    2.1289 C   0  0  0  0  0  4           0  0  0
   -0.0000    0.0000    0.0000 C   0  0  0  0  0  4           0  0  0
   -2.9301    0.2008    2.3692 C   0  0  0  0  0  4           0  0  0
    2.1722   -1.1973    0.6912 C   0  0  0  0  0  4           0  0  0
   -0.9094    1.0171    3.5288 C   0  0  0  0  0  4           0  0  0
    1.5329   -0.0000   -0.0000 C   0  0  0  0  0  4           0  0  0
  1  7  1  0     0  0
  2  8  2  0     0  0
  3 20  2  0     0  0
  4  8  1  0     0  0
  4  9  1  0     0  0
  4 21  1  0     0  0
  5  8  1  0     0  0
  5 10  1  0     0  0
  6 22  1  0     0  0
  6 23  1  0     0  0
  6 24  1  0     0  0
  7 12  2  0     0  0
  7 13  1  0     0  0
  9 10  2  0     0  0
  9 14  1  0     0  0
 10 15  1  0     0  0
 11 16  2  0     0  0
 11 17  1  0     0  0
 11 20  1  0     0  0
 12 16  1  0     0  0
 13 17  2  0     0  0
 14 18  2  0     0  0
 15 19  2  0     0  0
 18 19  1  0     0  0
 20 26  1  0     0  0
 21 25  2  0     0  0
 21 27  1  0     0  0
 22 25  1  0     0  0
 23 27  1  0     0  0
 24 28  1  0     0  0
 26 28  1  0     0  0
M  END
> <standard_type>
pIC50

> <# Confs.>
25

> <canonical_smiles>
O=C(N1)N(C2=CCN(CCCC(C3=CC=C(F)C=C3)=O)CC2)C4=C1C=CC=C4

> <standard_relation>
=

> <Publication_ID>
nan

> <predicted_activity_value>
nan

> <actual_activity_value>
1.494850021680094

> <Compound>
Droperidol

> <standard_units>
uM

> hash
9634425843547044804

$$$$
18
XXILIB    08252103503D 0   0.00000     0.00000

 28 31  0     1  0            999 V2000
    1.5674   -7.0496    3.2924 F   0  0  0  0  0  1           0  0  0
   -5.2137    0.4887    3.9786 O   0  0  0  0  0  2           0  0  0
    1.5132   -2.6150   -1.1408 O   0  0  0  0  0  2           0  0  0
   -2.9631    0.8905    4.7583 N   0  0  2  0  0  3           0  0  0
   -4.7328    0.9949    6.2167 N   0  0  0  0  0  3           0  0  0
   -0.6825    0.0000    1.2956 N   0  0  2  0  0  3           0  0  0
    1.6181   -5.9585    2.5150 C   0  0  0  0  0  4           0  0  0
   -4.4051    0.7549    4.8589 C   0  0  0  0  0  4           0  0  0
   -2.4825    1.2022    6.0612 C   0  0  0  0  0  4           0  0  0
   -3.5723    1.2621    6.9292 C   0  0  0  0  0  4           0  0  0
    1.7219   -3.7132    0.9164 C   0  0  0  0  0  4           0  0  0
    2.5118   -4.9362    2.8295 C   0  0  0  0  0  4           0  0  0
    0.7762   -5.8682    1.4080 C   0  0  0  0  0  4           0  0  0
   -1.2071    1.4314    6.5457 C   0  0  0  0  0  4           0  0  0
   -3.4571    1.5433    8.2758 C   0  0  0  0  0  4           0  0  0
    2.5672   -3.8013    2.0237 C   0  0  0  0  0  4           0  0  0
    0.8269   -4.7360    0.5981 C   0  0  0  0  0  4           0  0  0
   -1.0601    1.7170    7.9103 C   0  0  0  0  0  4           0  0  0
   -2.1736    1.7723    8.7672 C   0  0  0  0  0  4           0  0  0
    1.7814   -2.5101    0.0532 C   0  0  0  0  0  4           0  0  0
   -2.2543    0.7330    3.5806 C   0  0  0  0  0  4           0  0  0
   -0.3078    1.1971    2.0671 C   0  0  0  0  0  4           0  0  0
   -2.1416   -0.0657    1.1530 C   0  0  0  0  0  4           0  0  0
    0.0000    0.0000    0.0000 C   0  0  0  0  0  4           0  0  0
   -1.1039    1.3884    3.3295 C   0  0  0  0  0  4           0  0  0
    2.1722   -1.1973    0.6912 C   0  0  0  0  0  4           0  0  0
   -2.8053   -0.2124    2.5316 C   0  0  0  0  0  4           0  0  0
    1.5329   -0.0000   -0.0000 C   0  0  0  0  0  4           0  0  0
  1  7  1  0     0  0
  2  8  2  0     0  0
  3 20  2  0     0  0
  4  8  1  0     0  0
  4  9  1  0     0  0
  4 21  1  0     0  0
  5  8  1  0     0  0
  5 10  1  0     0  0
  6 22  1  0     0  0
  6 23  1  0     0  0
  6 24  1  0     0  0
  7 12  2  0     0  0
  7 13  1  0     0  0
  9 10  2  0     0  0
  9 14  1  0     0  0
 10 15  1  0     0  0
 11 16  2  0     0  0
 11 17  1  0     0  0
 11 20  1  0     0  0
 12 16  1  0     0  0
 13 17  2  0     0  0
 14 18  2  0     0  0
 15 19  2  0     0  0
 18 19  1  0     0  0
 20 26  1  0     0  0
 21 25  2  0     0  0
 21 27  1  0     0  0
 22 25  1  0     0  0
 23 27  1  0     0  0
 24 28  1  0     0  0
 26 28  1  0     0  0
M  END
> <standard_type>
pIC50

> <# Confs.>
25

> <canonical_smiles>
O=C(N1)N(C2=CCN(CCCC(C3=CC=C(F)C=C3)=O)CC2)C4=C1C=CC=C4

> <standard_relation>
=

> <Publication_ID>
nan

> <predicted_activity_value>
nan

> <actual_activity_value>
1.494850021680094

> <Compound>
Droperidol

> <standard_units>
uM

> hash
9634425843547044804

$$$$
18
XXILIB    08252103503D 0   0.00000     0.00000

 28 31  0     1  0            999 V2000
    1.5532    7.0363    3.3099 F   0  0  0  0  0  1           0  0  0
   -1.9274   -2.6331    5.7098 O   0  0  0  0  0  2           0  0  0
    1.5132    2.6150   -1.1408 O   0  0  0  0  0  2           0  0  0
   -3.1095   -0.7950    4.6812 N   0  0  2  0  0  3           0  0  0
   -3.7834   -1.6144    6.7169 N   0  0  0  0  0  3           0  0  0
   -0.6825   -0.0000    1.2956 N   0  0  2  0  0  3           0  0  0
    1.6090    5.9495    2.5270 C   0  0  0  0  0  4           0  0  0
   -2.8167   -1.7914    5.6957 C   0  0  0  0  0  4           0  0  0
   -4.2379   -0.0567    5.1365 C   0  0  0  0  0  4           0  0  0
   -4.6310   -0.5712    6.3715 C   0  0  0  0  0  4           0  0  0
    1.7245    3.7137    0.9158 C   0  0  0  0  0  4           0  0  0
    2.5100    4.9314    2.8342 C   0  0  0  0  0  4           0  0  0
    0.7650    5.8593    1.4215 C   0  0  0  0  0  4           0  0  0
   -4.9353    1.0015    4.5816 C   0  0  0  0  0  4           0  0  0
   -5.6994   -0.0801    7.0945 C   0  0  0  0  0  4           0  0  0
    2.5702    3.8006    2.0230 C   0  0  0  0  0  4           0  0  0
    0.8202    4.7311    0.6064 C   0  0  0  0  0  4           0  0  0
   -6.0239    1.5221    5.2953 C   0  0  0  0  0  4           0  0  0
   -6.4023    0.9872    6.5395 C   0  0  0  0  0  4           0  0  0
    1.7814    2.5101    0.0532 C   0  0  0  0  0  4           0  0  0
   -2.3838   -0.6484    3.5124 C   0  0  0  0  0  4           0  0  0
   -2.1422    0.0000    1.1008 C   0  0  0  0  0  4           0  0  0
   -0.2898   -1.1427    2.1285 C   0  0  0  0  0  4           0  0  0
    0.0000    0.0000    0.0000 C   0  0  0  0  0  4           0  0  0
   -2.9310   -0.1961    2.3670 C   0  0  0  0  0  4           0  0  0
    2.1722    1.1973    0.6912 C   0  0  0  0  0  4           0  0  0
   -0.9146   -1.0214    3.5276 C   0  0  0  0  0  4           0  0  0
    1.5329    0.0000   -0.0000 C   0  0  0  0  0  4           0  0  0
  1  7  1  0     0  0
  2  8  2  0     0  0
  3 20  2  0     0  0
  4  8  1  0     0  0
  4  9  1  0     0  0
  4 21  1  0     0  0
  5  8  1  0     0  0
  5 10  1  0     0  0
  6 22  1  0     0  0
  6 23  1  0     0  0
  6 24  1  0     0  0
  7 12  2  0     0  0
  7 13  1  0     0  0
  9 10  2  0     0  0
  9 14  1  0     0  0
 10 15  1  0     0  0
 11 16  2  0     0  0
 11 17  1  0     0  0
 11 20  1  0     0  0
 12 16  1  0     0  0
 13 17  2  0     0  0
 14 18  2  0     0  0
 15 19  2  0     0  0
 18 19  1  0     0  0
 20 26  1  0     0  0
 21 25  2  0     0  0
 21 27  1  0     0  0
 22 25  1  0     0  0
 23 27  1  0     0  0
 24 28  1  0     0  0
 26 28  1  0     0  0
M  END
> <standard_type>
pIC50

> <# Confs.>
25

> <canonical_smiles>
O=C(N1)N(C2=CCN(CCCC(C3=CC=C(F)C=C3)=O)CC2)C4=C1C=CC=C4

> <standard_relation>
=

> <Publication_ID>
nan

> <predicted_activity_value>
nan

> <actual_activity_value>
1.494850021680094

> <Compound>
Droperidol

> <standard_units>
uM

> hash
9634425843547044804

$$$$
18
XXILIB    08252103503D 0   0.00000     0.00000

 28 31  0     1  0            999 V2000
    6.4681    5.9796    0.5949 F   0  0  0  0  0  1           0  0  0
   -3.9896    1.2918    4.9526 O   0  0  0  0  0  2           0  0  0
    4.3101    0.0891    0.6477 O   0  0  0  0  0  2           0  0  0
   -2.9701   -0.8890    4.7546 N   0  0  2  0  0  3           0  0  0
   -4.3354   -0.4033    6.5350 N   0  0  0  0  0  3           0  0  0
   -0.6825    0.0000    1.2956 N   0  0  2  0  0  3           0  0  0
    5.7993    4.8179    0.6119 C   0  0  0  0  0  4           0  0  0
   -3.7865    0.1522    5.3522 C   0  0  0  0  0  4           0  0  0
   -3.0653   -2.0296    5.6007 C   0  0  0  0  0  4           0  0  0
   -3.8965   -1.7124    6.6745 C   0  0  0  0  0  4           0  0  0
    4.4234    2.4276    0.6476 C   0  0  0  0  0  4           0  0  0
    4.5614    4.7511    1.2492 C   0  0  0  0  0  4           0  0  0
    6.3549    3.7001   -0.0080 C   0  0  0  0  0  4           0  0  0
   -2.5047   -3.2916    5.5175 C   0  0  0  0  0  4           0  0  0
   -4.2033   -2.5998    7.6864 C   0  0  0  0  0  4           0  0  0
    3.8637    3.5457    1.2683 C   0  0  0  0  0  4           0  0  0
    5.6621    2.4917    0.0074 C   0  0  0  0  0  4           0  0  0
   -2.8011   -4.2143    6.5304 C   0  0  0  0  0  4           0  0  0
   -3.6422   -3.8724    7.6042 C   0  0  0  0  0  4           0  0  0
    3.6821    1.1445    0.6608 C   0  0  0  0  0  4           0  0  0
   -2.2581   -0.7309    3.5790 C   0  0  0  0  0  4           0  0  0
   -0.3090   -1.1964    2.0687 C   0  0  0  0  0  4           0  0  0
   -2.1414    0.0683    1.1522 C   0  0  0  0  0  4           0  0  0
    0.0000   -0.0000    0.0000 C   0  0  0  0  0  4           0  0  0
   -1.1090   -1.3892    3.3285 C   0  0  0  0  0  4           0  0  0
    2.1722    1.1973    0.6912 C   0  0  0  0  0  4           0  0  0
   -2.8037    0.2191    2.5309 C   0  0  0  0  0  4           0  0  0
    1.5329    0.0000    0.0000 C   0  0  0  0  0  4           0  0  0
  1  7  1  0     0  0
  2  8  2  0     0  0
  3 20  2  0     0  0
  4  8  1  0     0  0
  4  9  1  0     0  0
  4 21  1  0     0  0
  5  8  1  0     0  0
  5 10  1  0     0  0
  6 22  1  0     0  0
  6 23  1  0     0  0
  6 24  1  0     0  0
  7 12  2  0     0  0
  7 13  1  0     0  0
  9 10  2  0     0  0
  9 14  1  0     0  0
 10 15  1  0     0  0
 11 16  2  0     0  0
 11 17  1  0     0  0
 11 20  1  0     0  0
 12 16  1  0     0  0
 13 17  2  0     0  0
 14 18  2  0     0  0
 15 19  2  0     0  0
 18 19  1  0     0  0
 20 26  1  0     0  0
 21 25  2  0     0  0
 21 27  1  0     0  0
 22 25  1  0     0  0
 23 27  1  0     0  0
 24 28  1  0     0  0
 26 28  1  0     0  0
M  END
> <standard_type>
pIC50

> <# Confs.>
25

> <canonical_smiles>
O=C(N1)N(C2=CCN(CCCC(C3=CC=C(F)C=C3)=O)CC2)C4=C1C=CC=C4

> <standard_relation>
=

> <Publication_ID>
nan

> <predicted_activity_value>
nan

> <actual_activity_value>
1.494850021680094

> <Compound>
Droperidol

> <standard_units>
uM

> hash
9634425843547044804

$$$$
18
XXILIB    08252103503D 0   0.00000     0.00000

 28 31  0     1  0            999 V2000
    6.5028   -5.3087    3.0790 F   0  0  0  0  0  1           0  0  0
   -1.3789    0.4119    6.3279 O   0  0  0  0  0  2           0  0  0
    4.3045   -0.2275    0.1314 O   0  0  0  0  0  2           0  0  0
   -3.1049    0.8011    4.6836 N   0  0  2  0  0  3           0  0  0
   -3.5962    0.8856    6.9244 N   0  0  0  0  0  3           0  0  0
   -0.6825    0.0000    1.2956 N   0  0  2  0  0  3           0  0  0
    5.8250   -4.3091    2.4971 C   0  0  0  0  0  4           0  0  0
   -2.5346    0.6648    6.0118 C   0  0  0  0  0  4           0  0  0
   -4.4856    1.1027    4.8525 C   0  0  0  0  0  4           0  0  0
   -4.7620    1.1476    6.2186 C   0  0  0  0  0  4           0  0  0
    4.4304   -2.2529    1.2991 C   0  0  0  0  0  4           0  0  0
    4.4314   -4.3329    2.5046 C   0  0  0  0  0  4           0  0  0
    6.5273   -3.2659    1.8962 C   0  0  0  0  0  4           0  0  0
   -5.4987    1.3378    3.9403 C   0  0  0  0  0  4           0  0  0
   -6.0144    1.4179    6.7323 C   0  0  0  0  0  4           0  0  0
    3.7242   -3.2956    1.9012 C   0  0  0  0  0  4           0  0  0
    5.8260   -2.2255    1.2912 C   0  0  0  0  0  4           0  0  0
   -6.7806    1.6175    4.4340 C   0  0  0  0  0  4           0  0  0
   -7.0363    1.6575    5.8161 C   0  0  0  0  0  4           0  0  0
    3.6821   -1.1445    0.6608 C   0  0  0  0  0  4           0  0  0
   -2.3805    0.6510    3.5144 C   0  0  0  0  0  4           0  0  0
   -2.1425    0.0000    1.1028 C   0  0  0  0  0  4           0  0  0
   -0.2874    1.1415    2.1289 C   0  0  0  0  0  4           0  0  0
   -0.0000    0.0000    0.0000 C   0  0  0  0  0  4           0  0  0
   -2.9301    0.2008    2.3692 C   0  0  0  0  0  4           0  0  0
    2.1722   -1.1973    0.6912 C   0  0  0  0  0  4           0  0  0
   -0.9094    1.0171    3.5288 C   0  0  0  0  0  4           0  0  0
    1.5329   -0.0000    0.0000 C   0  0  0  0  0  4           0  0  0
  1  7  1  0     0  0
  2  8  2  0     0  0
  3 20  2  0     0  0
  4  8  1  0     0  0
  4  9  1  0     0  0
  4 21  1  0     0  0
  5  8  1  0     0  0
  5 10  1  0     0  0
  6 22  1  0     0  0
  6 23  1  0     0  0
  6 24  1  0     0  0
  7 12  2  0     0  0
  7 13  1  0     0  0
  9 10  2  0     0  0
  9 14  1  0     0  0
 10 15  1  0     0  0
 11 16  2  0     0  0
 11 17  1  0     0  0
 11 20  1  0     0  0
 12 16  1  0     0  0
 13 17  2  0     0  0
 14 18  2  0     0  0
 15 19  2  0     0  0
 18 19  1  0     0  0
 20 26  1  0     0  0
 21 25  2  0     0  0
 21 27  1  0     0  0
 22 25  1  0     0  0
 23 27  1  0     0  0
 24 28  1  0     0  0
 26 28  1  0     0  0
M  END
> <standard_type>
pIC50

> <# Confs.>
25

> <canonical_smiles>
O=C(N1)N(C2=CCN(CCCC(C3=CC=C(F)C=C3)=O)CC2)C4=C1C=CC=C4

> <standard_relation>
=

> <Publication_ID>
nan

> <predicted_activity_value>
nan

> <actual_activity_value>
1.494850021680094

> <Compound>
Droperidol

> <standard_units>
uM

> hash
9634425843547044804

$$$$
18
XXILIB    08252103503D 0   0.00000     0.00000

 28 31  0     1  0            999 V2000
   -0.8572   -6.2740    3.2179 F   0  0  0  0  0  1           0  0  0
   -3.9827   -1.2901    4.9575 O   0  0  0  0  0  2           0  0  0
    2.0226   -2.7761   -1.1214 O   0  0  0  0  0  2           0  0  0
   -2.9631    0.8905    4.7583 N   0  0  2  0  0  3           0  0  0
   -4.3344    0.4082    6.5350 N   0  0  0  0  0  3           0  0  0
   -0.6825    0.0000    1.2956 N   0  0  2  0  0  3           0  0  0
   -0.2244   -5.3697    2.4570 C   0  0  0  0  0  4           0  0  0
   -3.7814   -0.1496    5.3553 C   0  0  0  0  0  4           0  0  0
   -3.0543    2.0299    5.6064 C   0  0  0  0  0  4           0  0  0
   -3.8917    1.7158    6.6763 C   0  0  0  0  0  4           0  0  0
    1.0768   -3.5089    0.8911 C   0  0  0  0  0  4           0  0  0
   -0.3961   -4.0123    2.7233 C   0  0  0  0  0  4           0  0  0
    0.5924   -5.8047    1.4149 C   0  0  0  0  0  4           0  0  0
   -2.4827    3.2874    5.5297 C   0  0  0  0  0  4           0  0  0
   -4.1954    2.6026    7.6897 C   0  0  0  0  0  4           0  0  0
    0.2603   -3.0701    1.9348 C   0  0  0  0  0  4           0  0  0
    1.2517   -4.8676    0.6229 C   0  0  0  0  0  4           0  0  0
   -2.7718    4.2077    6.5469 C   0  0  0  0  0  4           0  0  0
   -3.6194    3.8691    7.6165 C   0  0  0  0  0  4           0  0  0
    1.7814   -2.5101    0.0532 C   0  0  0  0  0  4           0  0  0
   -2.2543    0.7330    3.5806 C   0  0  0  0  0  4           0  0  0
   -0.3078    1.1971    2.0671 C   0  0  0  0  0  4           0  0  0
   -2.1416   -0.0657    1.1530 C   0  0  0  0  0  4           0  0  0
    0.0000    0.0000    0.0000 C   0  0  0  0  0  4           0  0  0
   -1.1039    1.3884    3.3295 C   0  0  0  0  0  4           0  0  0
    2.1722   -1.1973    0.6912 C   0  0  0  0  0  4           0  0  0
   -2.8053   -0.2124    2.5316 C   0  0  0  0  0  4           0  0  0
    1.5329   -0.0000   -0.0000 C   0  0  0  0  0  4           0  0  0
  1  7  1  0     0  0
  2  8  2  0     0  0
  3 20  2  0     0  0
  4  8  1  0     0  0
  4  9  1  0     0  0
  4 21  1  0     0  0
  5  8  1  0     0  0
  5 10  1  0     0  0
  6 22  1  0     0  0
  6 23  1  0     0  0
  6 24  1  0     0  0
  7 12  2  0     0  0
  7 13  1  0     0  0
  9 10  2  0     0  0
  9 14  1  0     0  0
 10 15  1  0     0  0
 11 16  2  0     0  0
 11 17  1  0     0  0
 11 20  1  0     0  0
 12 16  1  0     0  0
 13 17  2  0     0  0
 14 18  2  0     0  0
 15 19  2  0     0  0
 18 19  1  0     0  0
 20 26  1  0     0  0
 21 25  2  0     0  0
 21 27  1  0     0  0
 22 25  1  0     0  0
 23 27  1  0     0  0
 24 28  1  0     0  0
 26 28  1  0     0  0
M  END
> <standard_type>
pIC50

> <# Confs.>
25

> <canonical_smiles>
O=C(N1)N(C2=CCN(CCCC(C3=CC=C(F)C=C3)=O)CC2)C4=C1C=CC=C4

> <standard_relation>
=

> <Publication_ID>
nan

> <predicted_activity_value>
nan

> <actual_activity_value>
1.494850021680094

> <Compound>
Droperidol

> <standard_units>
uM

> hash
9634425843547044804

$$$$
18
XXILIB    08252103503D 0   0.00000     0.00000

 28 31  0     1  0            999 V2000
    1.5674   -7.0496    3.2924 F   0  0  0  0  0  1           0  0  0
   -2.3981    3.1721    5.3144 O   0  0  0  0  0  2           0  0  0
    1.5132   -2.6150   -1.1408 O   0  0  0  0  0  2           0  0  0
   -2.9631    0.8905    4.7583 N   0  0  2  0  0  3           0  0  0
   -3.8051    1.8646    6.6588 N   0  0  0  0  0  3           0  0  0
   -0.6825    0.0000    1.2956 N   0  0  2  0  0  3           0  0  0
    1.6181   -5.9585    2.5150 C   0  0  0  0  0  4           0  0  0
   -2.9737    2.1148    5.5386 C   0  0  0  0  0  4           0  0  0
   -3.7925   -0.0443    5.4395 C   0  0  0  0  0  4           0  0  0
   -4.2912    0.5666    6.5895 C   0  0  0  0  0  4           0  0  0
    1.7219   -3.7132    0.9164 C   0  0  0  0  0  4           0  0  0
    2.5118   -4.9362    2.8295 C   0  0  0  0  0  4           0  0  0
    0.7762   -5.8682    1.4080 C   0  0  0  0  0  4           0  0  0
   -4.1437   -1.3508    5.1502 C   0  0  0  0  0  4           0  0  0
   -5.1343   -0.0653    7.4814 C   0  0  0  0  0  4           0  0  0
    2.5672   -3.8013    2.0237 C   0  0  0  0  0  4           0  0  0
    0.8269   -4.7360    0.5981 C   0  0  0  0  0  4           0  0  0
   -5.0010   -2.0164    6.0375 C   0  0  0  0  0  4           0  0  0
   -5.4918   -1.3804    7.1916 C   0  0  0  0  0  4           0  0  0
    1.7814   -2.5101    0.0532 C   0  0  0  0  0  4           0  0  0
   -2.2543    0.7330    3.5806 C   0  0  0  0  0  4           0  0  0
   -0.3078    1.1971    2.0671 C   0  0  0  0  0  4           0  0  0
   -2.1416   -0.0657    1.1530 C   0  0  0  0  0  4           0  0  0
    0.0000    0.0000    0.0000 C   0  0  0  0  0  4           0  0  0
   -1.1039    1.3884    3.3295 C   0  0  0  0  0  4           0  0  0
    2.1722   -1.1973    0.6912 C   0  0  0  0  0  4           0  0  0
   -2.8053   -0.2124    2.5316 C   0  0  0  0  0  4           0  0  0
    1.5329   -0.0000   -0.0000 C   0  0  0  0  0  4           0  0  0
  1  7  1  0     0  0
  2  8  2  0     0  0
  3 20  2  0     0  0
  4  8  1  0     0  0
  4  9  1  0     0  0
  4 21  1  0     0  0
  5  8  1  0     0  0
  5 10  1  0     0  0
  6 22  1  0     0  0
  6 23  1  0     0  0
  6 24  1  0     0  0
  7 12  2  0     0  0
  7 13  1  0     0  0
  9 10  2  0     0  0
  9 14  1  0     0  0
 10 15  1  0     0  0
 11 16  2  0     0  0
 11 17  1  0     0  0
 11 20  1  0     0  0
 12 16  1  0     0  0
 13 17  2  0     0  0
 14 18  2  0     0  0
 15 19  2  0     0  0
 18 19  1  0     0  0
 20 26  1  0     0  0
 21 25  2  0     0  0
 21 27  1  0     0  0
 22 25  1  0     0  0
 23 27  1  0     0  0
 24 28  1  0     0  0
 26 28  1  0     0  0
M  END
> <standard_type>
pIC50

> <# Confs.>
25

> <canonical_smiles>
O=C(N1)N(C2=CCN(CCCC(C3=CC=C(F)C=C3)=O)CC2)C4=C1C=CC=C4

> <standard_relation>
=

> <Publication_ID>
nan

> <predicted_activity_value>
nan

> <actual_activity_value>
1.494850021680094

> <Compound>
Droperidol

> <standard_units>
uM

> hash
9634425843547044804

$$$$
18
XXILIB    08252103503D 0   0.00000     0.00000

 28 31  0     1  0            999 V2000
    6.5028    5.3208    3.0580 F   0  0  0  0  0  1           0  0  0
   -1.3843   -0.4055    6.3263 O   0  0  0  0  0  2           0  0  0
    4.3045    0.2275    0.1314 O   0  0  0  0  0  2           0  0  0
   -3.1095   -0.7950    4.6812 N   0  0  2  0  0  3           0  0  0
   -3.6001   -0.8874    6.9218 N   0  0  0  0  0  3           0  0  0
   -0.6825   -0.0000    1.2956 N   0  0  2  0  0  3           0  0  0
    5.8250    4.3171    2.4832 C   0  0  0  0  0  4           0  0  0
   -2.5393   -0.6610    6.0096 C   0  0  0  0  0  4           0  0  0
   -4.4912   -1.0921    4.8494 C   0  0  0  0  0  4           0  0  0
   -4.7665   -1.1450    6.2154 C   0  0  0  0  0  4           0  0  0
    4.4304    2.2515    1.3015 C   0  0  0  0  0  4           0  0  0
    4.4314    4.3355    2.5001 C   0  0  0  0  0  4           0  0  0
    6.5273    3.2751    1.8802 C   0  0  0  0  0  4           0  0  0
   -5.5068   -1.3139    3.9366 C   0  0  0  0  0  4           0  0  0
   -6.0199   -1.4120    6.7285 C   0  0  0  0  0  4           0  0  0
    3.7242    3.2943    1.9035 C   0  0  0  0  0  4           0  0  0
    5.8260    2.2310    1.2817 C   0  0  0  0  0  4           0  0  0
   -6.7908   -1.5850    4.4296 C   0  0  0  0  0  4           0  0  0
   -7.0454   -1.6334    5.8117 C   0  0  0  0  0  4           0  0  0
    3.6821    1.1445    0.6608 C   0  0  0  0  0  4           0  0  0
   -2.3838   -0.6484    3.5124 C   0  0  0  0  0  4           0  0  0
   -2.1422    0.0000    1.1008 C   0  0  0  0  0  4           0  0  0
   -0.2898   -1.1427    2.1285 C   0  0  0  0  0  4           0  0  0
    0.0000    0.0000    0.0000 C   0  0  0  0  0  4           0  0  0
   -2.9310   -0.1961    2.3670 C   0  0  0  0  0  4           0  0  0
    2.1722    1.1973    0.6912 C   0  0  0  0  0  4           0  0  0
   -0.9146   -1.0214    3.5276 C   0  0  0  0  0  4           0  0  0
    1.5329    0.0000    0.0000 C   0  0  0  0  0  4           0  0  0
  1  7  1  0     0  0
  2  8  2  0     0  0
  3 20  2  0     0  0
  4  8  1  0     0  0
  4  9  1  0     0  0
  4 21  1  0     0  0
  5  8  1  0     0  0
  5 10  1  0     0  0
  6 22  1  0     0  0
  6 23  1  0     0  0
  6 24  1  0     0  0
  7 12  2  0     0  0
  7 13  1  0     0  0
  9 10  2  0     0  0
  9 14  1  0     0  0
 10 15  1  0     0  0
 11 16  2  0     0  0
 11 17  1  0     0  0
 11 20  1  0     0  0
 12 16  1  0     0  0
 13 17  2  0     0  0
 14 18  2  0     0  0
 15 19  2  0     0  0
 18 19  1  0     0  0
 20 26  1  0     0  0
 21 25  2  0     0  0
 21 27  1  0     0  0
 22 25  1  0     0  0
 23 27  1  0     0  0
 24 28  1  0     0  0
 26 28  1  0     0  0
M  END
> <standard_type>
pIC50

> <# Confs.>
25

> <canonical_smiles>
O=C(N1)N(C2=CCN(CCCC(C3=CC=C(F)C=C3)=O)CC2)C4=C1C=CC=C4

> <standard_relation>
=

> <Publication_ID>
nan

> <predicted_activity_value>
nan

> <actual_activity_value>
1.494850021680094

> <Compound>
Droperidol

> <standard_units>
uM

> hash
9634425843547044804

$$$$
18
XXILIB    08252103503D 0   0.00000     0.00000

 28 31  0     1  0            999 V2000
    1.5532    7.0363    3.3099 F   0  0  0  0  0  1           0  0  0
   -2.4073   -3.1712    5.3106 O   0  0  0  0  0  2           0  0  0
    1.5132    2.6150   -1.1408 O   0  0  0  0  0  2           0  0  0
   -2.9701   -0.8890    4.7546 N   0  0  2  0  0  3           0  0  0
   -3.8281   -1.8685    6.6451 N   0  0  0  0  0  3           0  0  0
   -0.6825    0.0000    1.2956 N   0  0  2  0  0  3           0  0  0
    1.6090    5.9495    2.5270 C   0  0  0  0  0  4           0  0  0
   -2.9863   -2.1151    5.5319 C   0  0  0  0  0  4           0  0  0
   -3.7995    0.0462    5.4352 C   0  0  0  0  0  4           0  0  0
   -4.3105   -0.5691    6.5776 C   0  0  0  0  0  4           0  0  0
    1.7245    3.7137    0.9158 C   0  0  0  0  0  4           0  0  0
    2.5100    4.9314    2.8342 C   0  0  0  0  0  4           0  0  0
    0.7650    5.8593    1.4215 C   0  0  0  0  0  4           0  0  0
   -4.1389    1.3573    5.1530 C   0  0  0  0  0  4           0  0  0
   -5.1557    0.0625    7.4677 C   0  0  0  0  0  4           0  0  0
    2.5702    3.8006    2.0230 C   0  0  0  0  0  4           0  0  0
    0.8202    4.7311    0.6064 C   0  0  0  0  0  4           0  0  0
   -4.9939    2.0243    6.0414 C   0  0  0  0  0  4           0  0  0
   -5.4974    1.3838    7.1876 C   0  0  0  0  0  4           0  0  0
    1.7814    2.5101    0.0532 C   0  0  0  0  0  4           0  0  0
   -2.2581   -0.7309    3.5790 C   0  0  0  0  0  4           0  0  0
   -0.3090   -1.1964    2.0687 C   0  0  0  0  0  4           0  0  0
   -2.1414    0.0683    1.1522 C   0  0  0  0  0  4           0  0  0
    0.0000   -0.0000    0.0000 C   0  0  0  0  0  4           0  0  0
   -1.1090   -1.3892    3.3285 C   0  0  0  0  0  4           0  0  0
    2.1722    1.1973    0.6912 C   0  0  0  0  0  4           0  0  0
   -2.8037    0.2191    2.5309 C   0  0  0  0  0  4           0  0  0
    1.5329    0.0000   -0.0000 C   0  0  0  0  0  4           0  0  0
  1  7  1  0     0  0
  2  8  2  0     0  0
  3 20  2  0     0  0
  4  8  1  0     0  0
  4  9  1  0     0  0
  4 21  1  0     0  0
  5  8  1  0     0  0
  5 10  1  0     0  0
  6 22  1  0     0  0
  6 23  1  0     0  0
  6 24  1  0     0  0
  7 12  2  0     0  0
  7 13  1  0     0  0
  9 10  2  0     0  0
  9 14  1  0     0  0
 10 15  1  0     0  0
 11 16  2  0     0  0
 11 17  1  0     0  0
 11 20  1  0     0  0
 12 16  1  0     0  0
 13 17  2  0     0  0
 14 18  2  0     0  0
 15 19  2  0     0  0
 18 19  1  0     0  0
 20 26  1  0     0  0
 21 25  2  0     0  0
 21 27  1  0     0  0
 22 25  1  0     0  0
 23 27  1  0     0  0
 24 28  1  0     0  0
 26 28  1  0     0  0
M  END
> <standard_type>
pIC50

> <# Confs.>
25

> <canonical_smiles>
O=C(N1)N(C2=CCN(CCCC(C3=CC=C(F)C=C3)=O)CC2)C4=C1C=CC=C4

> <standard_relation>
=

> <Publication_ID>
nan

> <predicted_activity_value>
nan

> <actual_activity_value>
1.494850021680094

> <Compound>
Droperidol

> <standard_units>
uM

> hash
9634425843547044804

$$$$
18
XXILIB    08252103503D 0   0.00000     0.00000

 28 31  0     1  0            999 V2000
   -0.8572   -6.2740    3.2179 F   0  0  0  0  0  1           0  0  0
   -1.3789    0.4119    6.3279 O   0  0  0  0  0  2           0  0  0
    2.0226   -2.7761   -1.1214 O   0  0  0  0  0  2           0  0  0
   -3.1049    0.8011    4.6836 N   0  0  2  0  0  3           0  0  0
   -3.5962    0.8856    6.9244 N   0  0  0  0  0  3           0  0  0
   -0.6825    0.0000    1.2956 N   0  0  2  0  0  3           0  0  0
   -0.2244   -5.3697    2.4570 C   0  0  0  0  0  4           0  0  0
   -2.5346    0.6648    6.0118 C   0  0  0  0  0  4           0  0  0
   -4.4856    1.1027    4.8525 C   0  0  0  0  0  4           0  0  0
   -4.7620    1.1476    6.2186 C   0  0  0  0  0  4           0  0  0
    1.0768   -3.5089    0.8911 C   0  0  0  0  0  4           0  0  0
   -0.3961   -4.0123    2.7233 C   0  0  0  0  0  4           0  0  0
    0.5924   -5.8047    1.4149 C   0  0  0  0  0  4           0  0  0
   -5.4987    1.3378    3.9403 C   0  0  0  0  0  4           0  0  0
   -6.0144    1.4179    6.7323 C   0  0  0  0  0  4           0  0  0
    0.2603   -3.0701    1.9348 C   0  0  0  0  0  4           0  0  0
    1.2517   -4.8676    0.6229 C   0  0  0  0  0  4           0  0  0
   -6.7806    1.6175    4.4340 C   0  0  0  0  0  4           0  0  0
   -7.0363    1.6575    5.8161 C   0  0  0  0  0  4           0  0  0
    1.7814   -2.5101    0.0532 C   0  0  0  0  0  4           0  0  0
   -2.3805    0.6510    3.5144 C   0  0  0  0  0  4           0  0  0
   -2.1425    0.0000    1.1028 C   0  0  0  0  0  4           0  0  0
   -0.2874    1.1415    2.1289 C   0  0  0  0  0  4           0  0  0
   -0.0000    0.0000    0.0000 C   0  0  0  0  0  4           0  0  0
   -2.9301    0.2008    2.3692 C   0  0  0  0  0  4           0  0  0
    2.1722   -1.1973    0.6912 C   0  0  0  0  0  4           0  0  0
   -0.9094    1.0171    3.5288 C   0  0  0  0  0  4           0  0  0
    1.5329   -0.0000   -0.0000 C   0  0  0  0  0  4           0  0  0
  1  7  1  0     0  0
  2  8  2  0     0  0
  3 20  2  0     0  0
  4  8  1  0     0  0
  4  9  1  0     0  0
  4 21  1  0     0  0
  5  8  1  0     0  0
  5 10  1  0     0  0
  6 22  1  0     0  0
  6 23  1  0     0  0
  6 24  1  0     0  0
  7 12  2  0     0  0
  7 13  1  0     0  0
  9 10  2  0     0  0
  9 14  1  0     0  0
 10 15  1  0     0  0
 11 16  2  0     0  0
 11 17  1  0     0  0
 11 20  1  0     0  0
 12 16  1  0     0  0
 13 17  2  0     0  0
 14 18  2  0     0  0
 15 19  2  0     0  0
 18 19  1  0     0  0
 20 26  1  0     0  0
 21 25  2  0     0  0
 21 27  1  0     0  0
 22 25  1  0     0  0
 23 27  1  0     0  0
 24 28  1  0     0  0
 26 28  1  0     0  0
M  END
> <standard_type>
pIC50

> <# Confs.>
25

> <canonical_smiles>
O=C(N1)N(C2=CCN(CCCC(C3=CC=C(F)C=C3)=O)CC2)C4=C1C=CC=C4

> <standard_relation>
=

> <Publication_ID>
nan

> <predicted_activity_value>
nan

> <actual_activity_value>
1.494850021680094

> <Compound>
Droperidol

> <standard_units>
uM

> hash
9634425843547044804

$$$$
18
XXILIB    08252103503D 0   0.00000     0.00000

 28 31  0     1  0            999 V2000
    1.5532    7.0363    3.3099 F   0  0  0  0  0  1           0  0  0
   -5.2185   -0.4860    3.9692 O   0  0  0  0  0  2           0  0  0
    1.5132    2.6150   -1.1408 O   0  0  0  0  0  2           0  0  0
   -2.9701   -0.8890    4.7546 N   0  0  2  0  0  3           0  0  0
   -4.7422   -0.9808    6.2109 N   0  0  0  0  0  3           0  0  0
   -0.6825    0.0000    1.2956 N   0  0  2  0  0  3           0  0  0
    1.6090    5.9495    2.5270 C   0  0  0  0  0  4           0  0  0
   -4.4119   -0.7491    4.8523 C   0  0  0  0  0  4           0  0  0
   -2.4933   -1.2036    6.0583 C   0  0  0  0  0  4           0  0  0
   -3.5841   -1.2526    6.9255 C   0  0  0  0  0  4           0  0  0
    1.7245    3.7137    0.9158 C   0  0  0  0  0  4           0  0  0
    2.5100    4.9314    2.8342 C   0  0  0  0  0  4           0  0  0
    0.7650    5.8593    1.4215 C   0  0  0  0  0  4           0  0  0
   -1.2207   -1.4468    6.5433 C   0  0  0  0  0  4           0  0  0
   -3.4726   -1.5350    8.2721 C   0  0  0  0  0  4           0  0  0
    2.5702    3.8006    2.0230 C   0  0  0  0  0  4           0  0  0
    0.8202    4.7311    0.6064 C   0  0  0  0  0  4           0  0  0
   -1.0780   -1.7388    7.9070 C   0  0  0  0  0  4           0  0  0
   -2.1925   -1.7829    8.7632 C   0  0  0  0  0  4           0  0  0
    1.7814    2.5101    0.0532 C   0  0  0  0  0  4           0  0  0
   -2.2581   -0.7309    3.5790 C   0  0  0  0  0  4           0  0  0
   -0.3090   -1.1964    2.0687 C   0  0  0  0  0  4           0  0  0
   -2.1414    0.0683    1.1522 C   0  0  0  0  0  4           0  0  0
    0.0000   -0.0000    0.0000 C   0  0  0  0  0  4           0  0  0
   -1.1090   -1.3892    3.3285 C   0  0  0  0  0  4           0  0  0
    2.1722    1.1973    0.6912 C   0  0  0  0  0  4           0  0  0
   -2.8037    0.2191    2.5309 C   0  0  0  0  0  4           0  0  0
    1.5329    0.0000   -0.0000 C   0  0  0  0  0  4           0  0  0
  1  7  1  0     0  0
  2  8  2  0     0  0
  3 20  2  0     0  0
  4  8  1  0     0  0
  4  9  1  0     0  0
  4 21  1  0     0  0
  5  8  1  0     0  0
  5 10  1  0     0  0
  6 22  1  0     0  0
  6 23  1  0     0  0
  6 24  1  0     0  0
  7 12  2  0     0  0
  7 13  1  0     0  0
  9 10  2  0     0  0
  9 14  1  0     0  0
 10 15  1  0     0  0
 11 16  2  0     0  0
 11 17  1  0     0  0
 11 20  1  0     0  0
 12 16  1  0     0  0
 13 17  2  0     0  0
 14 18  2  0     0  0
 15 19  2  0     0  0
 18 19  1  0     0  0
 20 26  1  0     0  0
 21 25  2  0     0  0
 21 27  1  0     0  0
 22 25  1  0     0  0
 23 27  1  0     0  0
 24 28  1  0     0  0
 26 28  1  0     0  0
M  END
> <standard_type>
pIC50

> <# Confs.>
25

> <canonical_smiles>
O=C(N1)N(C2=CCN(CCCC(C3=CC=C(F)C=C3)=O)CC2)C4=C1C=CC=C4

> <standard_relation>
=

> <Publication_ID>
nan

> <predicted_activity_value>
nan

> <actual_activity_value>
1.494850021680094

> <Compound>
Droperidol

> <standard_units>
uM

> hash
9634425843547044804

$$$$
18
XXILIB    08252103503D 0   0.00000     0.00000

 28 31  0     1  0            999 V2000
    6.4835   -5.9710    0.6143 F   0  0  0  0  0  1           0  0  0
   -3.9827   -1.2901    4.9575 O   0  0  0  0  0  2           0  0  0
    4.3101   -0.0891    0.6477 O   0  0  0  0  0  2           0  0  0
   -2.9631    0.8905    4.7583 N   0  0  2  0  0  3           0  0  0
   -4.3344    0.4082    6.5350 N   0  0  0  0  0  3           0  0  0
   -0.6825    0.0000    1.2956 N   0  0  2  0  0  3           0  0  0
    5.8099   -4.8119    0.6245 C   0  0  0  0  0  4           0  0  0
   -3.7814   -0.1496    5.3553 C   0  0  0  0  0  4           0  0  0
   -3.0543    2.0299    5.6064 C   0  0  0  0  0  4           0  0  0
   -3.8917    1.7158    6.6763 C   0  0  0  0  0  4           0  0  0
    4.4233   -2.4276    0.6449 C   0  0  0  0  0  4           0  0  0
    4.5671   -4.7492    1.2527 C   0  0  0  0  0  4           0  0  0
    6.3654   -3.6929    0.0069 C   0  0  0  0  0  4           0  0  0
   -2.4827    3.2874    5.5297 C   0  0  0  0  0  4           0  0  0
   -4.1954    2.6026    7.6897 C   0  0  0  0  0  4           0  0  0
    3.8648   -3.5463    1.2654 C   0  0  0  0  0  4           0  0  0
    5.6682   -2.4870    0.0163 C   0  0  0  0  0  4           0  0  0
   -2.7718    4.2077    6.5469 C   0  0  0  0  0  4           0  0  0
   -3.6194    3.8691    7.6165 C   0  0  0  0  0  4           0  0  0
    3.6821   -1.1445    0.6608 C   0  0  0  0  0  4           0  0  0
   -2.2543    0.7330    3.5806 C   0  0  0  0  0  4           0  0  0
   -0.3078    1.1971    2.0671 C   0  0  0  0  0  4           0  0  0
   -2.1416   -0.0657    1.1530 C   0  0  0  0  0  4           0  0  0
    0.0000    0.0000    0.0000 C   0  0  0  0  0  4           0  0  0
   -1.1039    1.3884    3.3295 C   0  0  0  0  0  4           0  0  0
    2.1722   -1.1973    0.6912 C   0  0  0  0  0  4           0  0  0
   -2.8053   -0.2124    2.5316 C   0  0  0  0  0  4           0  0  0
    1.5329    0.0000    0.0000 C   0  0  0  0  0  4           0  0  0
  1  7  1  0     0  0
  2  8  2  0     0  0
  3 20  2  0     0  0
  4  8  1  0     0  0
  4  9  1  0     0  0
  4 21  1  0     0  0
  5  8  1  0     0  0
  5 10  1  0     0  0
  6 22  1  0     0  0
  6 23  1  0     0  0
  6 24  1  0     0  0
  7 12  2  0     0  0
  7 13  1  0     0  0
  9 10  2  0     0  0
  9 14  1  0     0  0
 10 15  1  0     0  0
 11 16  2  0     0  0
 11 17  1  0     0  0
 11 20  1  0     0  0
 12 16  1  0     0  0
 13 17  2  0     0  0
 14 18  2  0     0  0
 15 19  2  0     0  0
 18 19  1  0     0  0
 20 26  1  0     0  0
 21 25  2  0     0  0
 21 27  1  0     0  0
 22 25  1  0     0  0
 23 27  1  0     0  0
 24 28  1  0     0  0
 26 28  1  0     0  0
M  END
> <standard_type>
pIC50

> <# Confs.>
25

> <canonical_smiles>
O=C(N1)N(C2=CCN(CCCC(C3=CC=C(F)C=C3)=O)CC2)C4=C1C=CC=C4

> <standard_relation>
=

> <Publication_ID>
nan

> <predicted_activity_value>
nan

> <actual_activity_value>
1.494850021680094

> <Compound>
Droperidol

> <standard_units>
uM

> hash
9634425843547044804

$$$$
18
XXILIB    08252103503D 0   0.00000     0.00000

 28 31  0     1  0            999 V2000
    6.4681   -3.5050    4.8811 F   0  0  0  0  0  1           0  0  0
   -3.9827   -1.2901    4.9575 O   0  0  0  0  0  2           0  0  0
    4.3101   -0.6055   -0.2467 O   0  0  0  0  0  2           0  0  0
   -2.9631    0.8905    4.7583 N   0  0  2  0  0  3           0  0  0
   -4.3344    0.4082    6.5350 N   0  0  0  0  0  3           0  0  0
   -0.6825    0.0000    1.2956 N   0  0  2  0  0  3           0  0  0
    5.7993   -2.9388    3.8665 C   0  0  0  0  0  4           0  0  0
   -3.7814   -0.1496    5.3553 C   0  0  0  0  0  4           0  0  0
   -3.0543    2.0299    5.6064 C   0  0  0  0  0  4           0  0  0
   -3.8917    1.7158    6.6763 C   0  0  0  0  0  4           0  0  0
    4.4234   -1.7747    1.7786 C   0  0  0  0  0  4           0  0  0
    4.5614   -3.4574    3.4900 C   0  0  0  0  0  4           0  0  0
    6.3549   -1.8431    3.2084 C   0  0  0  0  0  4           0  0  0
   -2.4827    3.2874    5.5297 C   0  0  0  0  0  4           0  0  0
   -4.1954    2.6026    7.6897 C   0  0  0  0  0  4           0  0  0
    3.8637   -2.8712    2.4365 C   0  0  0  0  0  4           0  0  0
    5.6621   -1.2523    2.1542 C   0  0  0  0  0  4           0  0  0
   -2.7718    4.2077    6.5469 C   0  0  0  0  0  4           0  0  0
   -3.6194    3.8691    7.6165 C   0  0  0  0  0  4           0  0  0
    3.6821   -1.1445    0.6608 C   0  0  0  0  0  4           0  0  0
   -2.2543    0.7330    3.5806 C   0  0  0  0  0  4           0  0  0
   -0.3078    1.1971    2.0671 C   0  0  0  0  0  4           0  0  0
   -2.1416   -0.0657    1.1530 C   0  0  0  0  0  4           0  0  0
    0.0000    0.0000    0.0000 C   0  0  0  0  0  4           0  0  0
   -1.1039    1.3884    3.3295 C   0  0  0  0  0  4           0  0  0
    2.1722   -1.1973    0.6912 C   0  0  0  0  0  4           0  0  0
   -2.8053   -0.2124    2.5316 C   0  0  0  0  0  4           0  0  0
    1.5329   -0.0000    0.0000 C   0  0  0  0  0  4           0  0  0
  1  7  1  0     0  0
  2  8  2  0     0  0
  3 20  2  0     0  0
  4  8  1  0     0  0
  4  9  1  0     0  0
  4 21  1  0     0  0
  5  8  1  0     0  0
  5 10  1  0     0  0
  6 22  1  0     0  0
  6 23  1  0     0  0
  6 24  1  0     0  0
  7 12  2  0     0  0
  7 13  1  0     0  0
  9 10  2  0     0  0
  9 14  1  0     0  0
 10 15  1  0     0  0
 11 16  2  0     0  0
 11 17  1  0     0  0
 11 20  1  0     0  0
 12 16  1  0     0  0
 13 17  2  0     0  0
 14 18  2  0     0  0
 15 19  2  0     0  0
 18 19  1  0     0  0
 20 26  1  0     0  0
 21 25  2  0     0  0
 21 27  1  0     0  0
 22 25  1  0     0  0
 23 27  1  0     0  0
 24 28  1  0     0  0
 26 28  1  0     0  0
M  END
> <standard_type>
pIC50

> <# Confs.>
25

> <canonical_smiles>
O=C(N1)N(C2=CCN(CCCC(C3=CC=C(F)C=C3)=O)CC2)C4=C1C=CC=C4

> <standard_relation>
=

> <Publication_ID>
nan

> <predicted_activity_value>
nan

> <actual_activity_value>
1.494850021680094

> <Compound>
Droperidol

> <standard_units>
uM

> hash
9634425843547044804

$$$$
18
XXILIB    08252103503D 0   0.00000     0.00000

 28 31  0     1  0            999 V2000
   -0.8766   -6.2586    3.2200 F   0  0  0  0  0  1           0  0  0
   -1.3789    0.4119    6.3279 O   0  0  0  0  0  2           0  0  0
    2.0226   -2.7761   -1.1214 O   0  0  0  0  0  2           0  0  0
   -3.1049    0.8011    4.6836 N   0  0  2  0  0  3           0  0  0
   -3.5962    0.8856    6.9244 N   0  0  0  0  0  3           0  0  0
   -0.6825    0.0000    1.2956 N   0  0  2  0  0  3           0  0  0
   -0.2378   -5.3591    2.4585 C   0  0  0  0  0  4           0  0  0
   -2.5346    0.6648    6.0118 C   0  0  0  0  0  4           0  0  0
   -4.4856    1.1027    4.8525 C   0  0  0  0  0  4           0  0  0
   -4.7620    1.1476    6.2186 C   0  0  0  0  0  4           0  0  0
    1.0768   -3.5089    0.8911 C   0  0  0  0  0  4           0  0  0
   -0.8602   -4.8694    1.3115 C   0  0  0  0  0  4           0  0  0
    1.0360   -4.9313    2.8288 C   0  0  0  0  0  4           0  0  0
   -5.4987    1.3378    3.9403 C   0  0  0  0  0  4           0  0  0
   -6.0144    1.4179    6.7323 C   0  0  0  0  0  4           0  0  0
   -0.1993   -3.9344    0.5182 C   0  0  0  0  0  4           0  0  0
    1.7021   -3.9963    2.0400 C   0  0  0  0  0  4           0  0  0
   -6.7806    1.6175    4.4340 C   0  0  0  0  0  4           0  0  0
   -7.0363    1.6575    5.8161 C   0  0  0  0  0  4           0  0  0
    1.7814   -2.5101    0.0532 C   0  0  0  0  0  4           0  0  0
   -2.3805    0.6510    3.5144 C   0  0  0  0  0  4           0  0  0
   -2.1425    0.0000    1.1028 C   0  0  0  0  0  4           0  0  0
   -0.2874    1.1415    2.1289 C   0  0  0  0  0  4           0  0  0
   -0.0000    0.0000    0.0000 C   0  0  0  0  0  4           0  0  0
   -2.9301    0.2008    2.3692 C   0  0  0  0  0  4           0  0  0
    2.1722   -1.1973    0.6912 C   0  0  0  0  0  4           0  0  0
   -0.9094    1.0171    3.5288 C   0  0  0  0  0  4           0  0  0
    1.5329   -0.0000   -0.0000 C   0  0  0  0  0  4           0  0  0
  1  7  1  0     0  0
  2  8  2  0     0  0
  3 20  2  0     0  0
  4  8  1  0     0  0
  4  9  1  0     0  0
  4 21  1  0     0  0
  5  8  1  0     0  0
  5 10  1  0     0  0
  6 22  1  0     0  0
  6 23  1  0     0  0
  6 24  1  0     0  0
  7 12  2  0     0  0
  7 13  1  0     0  0
  9 10  2  0     0  0
  9 14  1  0     0  0
 10 15  1  0     0  0
 11 16  2  0     0  0
 11 17  1  0     0  0
 11 20  1  0     0  0
 12 16  1  0     0  0
 13 17  2  0     0  0
 14 18  2  0     0  0
 15 19  2  0     0  0
 18 19  1  0     0  0
 20 26  1  0     0  0
 21 25  2  0     0  0
 21 27  1  0     0  0
 22 25  1  0     0  0
 23 27  1  0     0  0
 24 28  1  0     0  0
 26 28  1  0     0  0
M  END
> <standard_type>
pIC50

> <# Confs.>
25

> <canonical_smiles>
O=C(N1)N(C2=CCN(CCCC(C3=CC=C(F)C=C3)=O)CC2)C4=C1C=CC=C4

> <standard_relation>
=

> <Publication_ID>
nan

> <predicted_activity_value>
nan

> <actual_activity_value>
1.494850021680094

> <Compound>
Droperidol

> <standard_units>
uM

> hash
9634425843547044804

$$$$
12
XXILIB    08252103503D 0   0.00000     0.00000

 20 22  0     1  0            999 V2000
   -0.5576   -0.0000    1.3460 N   0  0  2  0  0  3           0  0  0
    1.7079    1.1684   -2.1794 N   0  0  0  0  0  3           0  0  0
   -1.3762   -1.1240    1.6264 C   0  0  0  0  0  4           0  0  0
   -0.3440    1.1284    2.1825 C   0  0  0  0  0  4           0  0  0
   -1.2063   -1.8792    2.7983 C   0  0  0  0  0  4           0  0  0
   -0.3596    1.0791    3.5983 C   0  0  0  0  0  4           0  0  0
   -2.3889   -1.5166    0.7265 C   0  0  0  0  0  4           0  0  0
   -0.1508    2.4052    1.5932 C   0  0  0  0  0  4           0  0  0
   -2.0203   -2.9977    3.0438 C   0  0  0  0  0  4           0  0  0
   -0.2197    2.2769    4.3418 C   0  0  0  0  0  4           0  0  0
   -3.1967   -2.6263    0.9788 C   0  0  0  0  0  4           0  0  0
    0.0042    3.5720    2.3453 C   0  0  0  0  0  4           0  0  0
   -3.0096   -3.3696    2.1372 C   0  0  0  0  0  4           0  0  0
   -0.0358    3.5088    3.7252 C   0  0  0  0  0  4           0  0  0
    0.0000    0.0000    0.0000 C   0  0  0  0  0  4           0  0  0
    2.1172    0.0000   -1.4095 C   0  0  0  0  0  4           0  0  0
    2.2841    1.1409   -3.5169 C   0  0  0  0  0  4           0  0  0
   -0.1503   -1.4923    3.7932 C   0  0  0  0  0  4           0  0  0
   -0.5151   -0.1675    4.4460 C   0  0  0  0  0  4           0  0  0
    1.5280   -0.0000    0.0000 C   0  0  0  0  0  4           0  0  0
  1  3  1  0     0  0
  1  4  1  0     0  0
  1 15  1  0     0  0
  2 16  1  0     0  0
  2 17  1  0     0  0
  3  5  2  0     0  0
  3  7  1  0     0  0
  4  6  2  0     0  0
  4  8  1  0     0  0
  5  9  1  0     0  0
  5 18  1  0     0  0
  6 10  1  0     0  0
  6 19  1  0     0  0
  7 11  2  0     0  0
  8 12  2  0     0  0
  9 13  2  0     0  0
 10 14  2  0     0  0
 11 13  1  0     0  0
 12 14  1  0     0  0
 15 20  1  0     0  0
 16 20  1  0     0  0
 18 19  1  0     0  0
M  END
> <standard_type>
pIC50

> <# Confs.>
25

> <canonical_smiles>
CNCCCN1C2=C(C=CC=C2)CCC3=C1C=CC=C3

> <standard_relation>
=

> <Publication_ID>
nan

> <predicted_activity_value>
nan

> <actual_activity_value>
-0.14301480025409513

> <Compound>
Desipramine

> <standard_units>
uM

> hash
17858186531061072819

$$$$
12
XXILIB    08252103503D 0   0.00000     0.00000

 20 22  0     1  0            999 V2000
   -0.5576   -0.0000    1.3460 N   0  0  2  0  0  3           0  0  0
    3.5751   -0.0000   -1.3990 N   0  0  0  0  0  3           0  0  0
   -1.3762   -1.1240    1.6264 C   0  0  0  0  0  4           0  0  0
   -0.3440    1.1284    2.1825 C   0  0  0  0  0  4           0  0  0
   -1.2063   -1.8792    2.7983 C   0  0  0  0  0  4           0  0  0
   -0.3596    1.0791    3.5983 C   0  0  0  0  0  4           0  0  0
   -2.3889   -1.5166    0.7265 C   0  0  0  0  0  4           0  0  0
   -0.1508    2.4052    1.5932 C   0  0  0  0  0  4           0  0  0
   -2.0203   -2.9977    3.0438 C   0  0  0  0  0  4           0  0  0
   -0.2197    2.2769    4.3418 C   0  0  0  0  0  4           0  0  0
   -3.1967   -2.6263    0.9788 C   0  0  0  0  0  4           0  0  0
    0.0042    3.5720    2.3453 C   0  0  0  0  0  4           0  0  0
   -3.0096   -3.3696    2.1372 C   0  0  0  0  0  4           0  0  0
   -0.0358    3.5088    3.7252 C   0  0  0  0  0  4           0  0  0
    0.0000    0.0000    0.0000 C   0  0  0  0  0  4           0  0  0
    2.1172    0.0000   -1.4095 C   0  0  0  0  0  4           0  0  0
    4.1074    0.0000   -2.7548 C   0  0  0  0  0  4           0  0  0
   -0.1503   -1.4923    3.7932 C   0  0  0  0  0  4           0  0  0
   -0.5151   -0.1675    4.4460 C   0  0  0  0  0  4           0  0  0
    1.5280   -0.0000   -0.0000 C   0  0  0  0  0  4           0  0  0
  1  3  1  0     0  0
  1  4  1  0     0  0
  1 15  1  0     0  0
  2 16  1  0     0  0
  2 17  1  0     0  0
  3  5  2  0     0  0
  3  7  1  0     0  0
  4  6  2  0     0  0
  4  8  1  0     0  0
  5  9  1  0     0  0
  5 18  1  0     0  0
  6 10  1  0     0  0
  6 19  1  0     0  0
  7 11  2  0     0  0
  8 12  2  0     0  0
  9 13  2  0     0  0
 10 14  2  0     0  0
 11 13  1  0     0  0
 12 14  1  0     0  0
 15 20  1  0     0  0
 16 20  1  0     0  0
 18 19  1  0     0  0
M  END
> <standard_type>
pIC50

> <# Confs.>
25

> <canonical_smiles>
CNCCCN1C2=C(C=CC=C2)CCC3=C1C=CC=C3

> <standard_relation>
=

> <Publication_ID>
nan

> <predicted_activity_value>
nan

> <actual_activity_value>
-0.14301480025409513

> <Compound>
Desipramine

> <standard_units>
uM

> hash
17858186531061072819

$$$$
12
XXILIB    08252103503D 0   0.00000     0.00000

 20 22  0     1  0            999 V2000
   -0.5576    0.0000    1.3460 N   0  0  2  0  0  3           0  0  0
    1.7079    1.1684   -2.1794 N   0  0  0  0  0  3           0  0  0
   -1.3763    1.1231    1.6281 C   0  0  0  0  0  4           0  0  0
   -0.3659   -1.1370    2.1761 C   0  0  0  0  0  4           0  0  0
   -1.2100    1.8694    2.8060 C   0  0  0  0  0  4           0  0  0
   -0.3830   -1.0946    3.5922 C   0  0  0  0  0  4           0  0  0
   -2.3859    1.5215    0.7275 C   0  0  0  0  0  4           0  0  0
   -0.1957   -2.4137    1.5795 C   0  0  0  0  0  4           0  0  0
   -2.0286    2.9824    3.0595 C   0  0  0  0  0  4           0  0  0
   -0.2668   -2.2989    4.3293 C   0  0  0  0  0  4           0  0  0
   -3.1967    2.6272    0.9866 C   0  0  0  0  0  4           0  0  0
   -0.0646   -3.5871    2.3258 C   0  0  0  0  0  4           0  0  0
   -3.0161    3.3595    2.1530 C   0  0  0  0  0  4           0  0  0
   -0.1062   -3.5307    3.7061 C   0  0  0  0  0  4           0  0  0
    0.0000    0.0000   -0.0000 C   0  0  0  0  0  4           0  0  0
    2.1172    0.0000   -1.4095 C   0  0  0  0  0  4           0  0  0
    2.2841    1.1409   -3.5169 C   0  0  0  0  0  4           0  0  0
   -0.1525    1.4771    3.7971 C   0  0  0  0  0  4           0  0  0
   -0.5160    0.1503    4.4468 C   0  0  0  0  0  4           0  0  0
    1.5280   -0.0000    0.0000 C   0  0  0  0  0  4           0  0  0
  1  3  1  0     0  0
  1  4  1  0     0  0
  1 15  1  0     0  0
  2 16  1  0     0  0
  2 17  1  0     0  0
  3  5  2  0     0  0
  3  7  1  0     0  0
  4  6  2  0     0  0
  4  8  1  0     0  0
  5  9  1  0     0  0
  5 18  1  0     0  0
  6 10  1  0     0  0
  6 19  1  0     0  0
  7 11  2  0     0  0
  8 12  2  0     0  0
  9 13  2  0     0  0
 10 14  2  0     0  0
 11 13  1  0     0  0
 12 14  1  0     0  0
 15 20  1  0     0  0
 16 20  1  0     0  0
 18 19  1  0     0  0
M  END
> <standard_type>
pIC50

> <# Confs.>
25

> <canonical_smiles>
CNCCCN1C2=C(C=CC=C2)CCC3=C1C=CC=C3

> <standard_relation>
=

> <Publication_ID>
nan

> <predicted_activity_value>
nan

> <actual_activity_value>
-0.14301480025409513

> <Compound>
Desipramine

> <standard_units>
uM

> hash
17858186531061072819

$$$$
12
XXILIB    08252103503D 0   0.00000     0.00000

 20 22  0     1  0            999 V2000
   -0.5576    0.0000    1.3460 N   0  0  2  0  0  3           0  0  0
    3.5751   -0.0000   -1.3990 N   0  0  0  0  0  3           0  0  0
   -1.3763    1.1231    1.6281 C   0  0  0  0  0  4           0  0  0
   -0.3659   -1.1370    2.1761 C   0  0  0  0  0  4           0  0  0
   -1.2100    1.8694    2.8060 C   0  0  0  0  0  4           0  0  0
   -0.3830   -1.0946    3.5922 C   0  0  0  0  0  4           0  0  0
   -2.3859    1.5215    0.7275 C   0  0  0  0  0  4           0  0  0
   -0.1957   -2.4137    1.5795 C   0  0  0  0  0  4           0  0  0
   -2.0286    2.9824    3.0595 C   0  0  0  0  0  4           0  0  0
   -0.2668   -2.2989    4.3293 C   0  0  0  0  0  4           0  0  0
   -3.1967    2.6272    0.9866 C   0  0  0  0  0  4           0  0  0
   -0.0646   -3.5871    2.3258 C   0  0  0  0  0  4           0  0  0
   -3.0161    3.3595    2.1530 C   0  0  0  0  0  4           0  0  0
   -0.1062   -3.5307    3.7061 C   0  0  0  0  0  4           0  0  0
    0.0000    0.0000   -0.0000 C   0  0  0  0  0  4           0  0  0
    2.1172    0.0000   -1.4095 C   0  0  0  0  0  4           0  0  0
    4.1074    0.0000   -2.7548 C   0  0  0  0  0  4           0  0  0
   -0.1525    1.4771    3.7971 C   0  0  0  0  0  4           0  0  0
   -0.5160    0.1503    4.4468 C   0  0  0  0  0  4           0  0  0
    1.5280   -0.0000   -0.0000 C   0  0  0  0  0  4           0  0  0
  1  3  1  0     0  0
  1  4  1  0     0  0
  1 15  1  0     0  0
  2 16  1  0     0  0
  2 17  1  0     0  0
  3  5  2  0     0  0
  3  7  1  0     0  0
  4  6  2  0     0  0
  4  8  1  0     0  0
  5  9  1  0     0  0
  5 18  1  0     0  0
  6 10  1  0     0  0
  6 19  1  0     0  0
  7 11  2  0     0  0
  8 12  2  0     0  0
  9 13  2  0     0  0
 10 14  2  0     0  0
 11 13  1  0     0  0
 12 14  1  0     0  0
 15 20  1  0     0  0
 16 20  1  0     0  0
 18 19  1  0     0  0
M  END
> <standard_type>
pIC50

> <# Confs.>
25

> <canonical_smiles>
CNCCCN1C2=C(C=CC=C2)CCC3=C1C=CC=C3

> <standard_relation>
=

> <Publication_ID>
nan

> <predicted_activity_value>
nan

> <actual_activity_value>
-0.14301480025409513

> <Compound>
Desipramine

> <standard_units>
uM

> hash
17858186531061072819

$$$$
12
XXILIB    08252103503D 0   0.00000     0.00000

 20 22  0     1  0            999 V2000
   -0.5576   -0.0000    1.3460 N   0  0  2  0  0  3           0  0  0
    3.5751   -1.2115    0.6995 N   0  0  0  0  0  3           0  0  0
   -1.3762   -1.1240    1.6264 C   0  0  0  0  0  4           0  0  0
   -0.3440    1.1284    2.1825 C   0  0  0  0  0  4           0  0  0
   -1.2063   -1.8792    2.7983 C   0  0  0  0  0  4           0  0  0
   -0.3596    1.0791    3.5983 C   0  0  0  0  0  4           0  0  0
   -2.3889   -1.5166    0.7265 C   0  0  0  0  0  4           0  0  0
   -0.1508    2.4052    1.5932 C   0  0  0  0  0  4           0  0  0
   -2.0203   -2.9977    3.0438 C   0  0  0  0  0  4           0  0  0
   -0.2197    2.2769    4.3418 C   0  0  0  0  0  4           0  0  0
   -3.1967   -2.6263    0.9788 C   0  0  0  0  0  4           0  0  0
    0.0042    3.5720    2.3453 C   0  0  0  0  0  4           0  0  0
   -3.0096   -3.3696    2.1372 C   0  0  0  0  0  4           0  0  0
   -0.0358    3.5088    3.7252 C   0  0  0  0  0  4           0  0  0
    0.0000    0.0000    0.0000 C   0  0  0  0  0  4           0  0  0
    2.1172   -1.2206    0.7047 C   0  0  0  0  0  4           0  0  0
    4.1074   -2.3857    1.3774 C   0  0  0  0  0  4           0  0  0
   -0.1503   -1.4923    3.7932 C   0  0  0  0  0  4           0  0  0
   -0.5151   -0.1675    4.4460 C   0  0  0  0  0  4           0  0  0
    1.5280    0.0000    0.0000 C   0  0  0  0  0  4           0  0  0
  1  3  1  0     0  0
  1  4  1  0     0  0
  1 15  1  0     0  0
  2 16  1  0     0  0
  2 17  1  0     0  0
  3  5  2  0     0  0
  3  7  1  0     0  0
  4  6  2  0     0  0
  4  8  1  0     0  0
  5  9  1  0     0  0
  5 18  1  0     0  0
  6 10  1  0     0  0
  6 19  1  0     0  0
  7 11  2  0     0  0
  8 12  2  0     0  0
  9 13  2  0     0  0
 10 14  2  0     0  0
 11 13  1  0     0  0
 12 14  1  0     0  0
 15 20  1  0     0  0
 16 20  1  0     0  0
 18 19  1  0     0  0
M  END
> <standard_type>
pIC50

> <# Confs.>
25

> <canonical_smiles>
CNCCCN1C2=C(C=CC=C2)CCC3=C1C=CC=C3

> <standard_relation>
=

> <Publication_ID>
nan

> <predicted_activity_value>
nan

> <actual_activity_value>
-0.14301480025409513

> <Compound>
Desipramine

> <standard_units>
uM

> hash
17858186531061072819

$$$$
12
XXILIB    08252103503D 0   0.00000     0.00000

 20 22  0     1  0            999 V2000
   -0.5576    0.0000    1.3460 N   0  0  2  0  0  3           0  0  0
    1.7079    2.4717    0.0779 N   0  0  0  0  0  3           0  0  0
   -1.3763    1.1231    1.6281 C   0  0  0  0  0  4           0  0  0
   -0.3659   -1.1370    2.1761 C   0  0  0  0  0  4           0  0  0
   -1.2100    1.8694    2.8060 C   0  0  0  0  0  4           0  0  0
   -0.3830   -1.0946    3.5922 C   0  0  0  0  0  4           0  0  0
   -2.3859    1.5215    0.7275 C   0  0  0  0  0  4           0  0  0
   -0.1957   -2.4137    1.5795 C   0  0  0  0  0  4           0  0  0
   -2.0286    2.9824    3.0595 C   0  0  0  0  0  4           0  0  0
   -0.2668   -2.2989    4.3293 C   0  0  0  0  0  4           0  0  0
   -3.1967    2.6272    0.9866 C   0  0  0  0  0  4           0  0  0
   -0.0646   -3.5871    2.3258 C   0  0  0  0  0  4           0  0  0
   -3.0161    3.3595    2.1530 C   0  0  0  0  0  4           0  0  0
   -0.1062   -3.5307    3.7061 C   0  0  0  0  0  4           0  0  0
    0.0000    0.0000   -0.0000 C   0  0  0  0  0  4           0  0  0
    2.1172    1.2206    0.7047 C   0  0  0  0  0  4           0  0  0
    2.2841    3.6162    0.7704 C   0  0  0  0  0  4           0  0  0
   -0.1525    1.4771    3.7971 C   0  0  0  0  0  4           0  0  0
   -0.5160    0.1503    4.4468 C   0  0  0  0  0  4           0  0  0
    1.5280   -0.0000    0.0000 C   0  0  0  0  0  4           0  0  0
  1  3  1  0     0  0
  1  4  1  0     0  0
  1 15  1  0     0  0
  2 16  1  0     0  0
  2 17  1  0     0  0
  3  5  2  0     0  0
  3  7  1  0     0  0
  4  6  2  0     0  0
  4  8  1  0     0  0
  5  9  1  0     0  0
  5 18  1  0     0  0
  6 10  1  0     0  0
  6 19  1  0     0  0
  7 11  2  0     0  0
  8 12  2  0     0  0
  9 13  2  0     0  0
 10 14  2  0     0  0
 11 13  1  0     0  0
 12 14  1  0     0  0
 15 20  1  0     0  0
 16 20  1  0     0  0
 18 19  1  0     0  0
M  END
> <standard_type>
pIC50

> <# Confs.>
25

> <canonical_smiles>
CNCCCN1C2=C(C=CC=C2)CCC3=C1C=CC=C3

> <standard_relation>
=

> <Publication_ID>
nan

> <predicted_activity_value>
nan

> <actual_activity_value>
-0.14301480025409513

> <Compound>
Desipramine

> <standard_units>
uM

> hash
17858186531061072819

$$$$
12
XXILIB    08252103503D 0   0.00000     0.00000

 20 22  0     1  0            999 V2000
   -0.5576    0.0000    1.3460 N   0  0  2  0  0  3           0  0  0
    1.7079   -1.1684   -2.1794 N   0  0  0  0  0  3           0  0  0
   -1.3763    1.1231    1.6281 C   0  0  0  0  0  4           0  0  0
   -0.3659   -1.1370    2.1761 C   0  0  0  0  0  4           0  0  0
   -1.2100    1.8694    2.8060 C   0  0  0  0  0  4           0  0  0
   -0.3830   -1.0946    3.5922 C   0  0  0  0  0  4           0  0  0
   -2.3859    1.5215    0.7275 C   0  0  0  0  0  4           0  0  0
   -0.1957   -2.4137    1.5795 C   0  0  0  0  0  4           0  0  0
   -2.0286    2.9824    3.0595 C   0  0  0  0  0  4           0  0  0
   -0.2668   -2.2989    4.3293 C   0  0  0  0  0  4           0  0  0
   -3.1967    2.6272    0.9866 C   0  0  0  0  0  4           0  0  0
   -0.0646   -3.5871    2.3258 C   0  0  0  0  0  4           0  0  0
   -3.0161    3.3595    2.1530 C   0  0  0  0  0  4           0  0  0
   -0.1062   -3.5307    3.7061 C   0  0  0  0  0  4           0  0  0
    0.0000    0.0000   -0.0000 C   0  0  0  0  0  4           0  0  0
    2.1172    0.0000   -1.4095 C   0  0  0  0  0  4           0  0  0
    2.2841   -1.1409   -3.5169 C   0  0  0  0  0  4           0  0  0
   -0.1525    1.4771    3.7971 C   0  0  0  0  0  4           0  0  0
   -0.5160    0.1503    4.4468 C   0  0  0  0  0  4           0  0  0
    1.5280    0.0000    0.0000 C   0  0  0  0  0  4           0  0  0
  1  3  1  0     0  0
  1  4  1  0     0  0
  1 15  1  0     0  0
  2 16  1  0     0  0
  2 17  1  0     0  0
  3  5  2  0     0  0
  3  7  1  0     0  0
  4  6  2  0     0  0
  4  8  1  0     0  0
  5  9  1  0     0  0
  5 18  1  0     0  0
  6 10  1  0     0  0
  6 19  1  0     0  0
  7 11  2  0     0  0
  8 12  2  0     0  0
  9 13  2  0     0  0
 10 14  2  0     0  0
 11 13  1  0     0  0
 12 14  1  0     0  0
 15 20  1  0     0  0
 16 20  1  0     0  0
 18 19  1  0     0  0
M  END
> <standard_type>
pIC50

> <# Confs.>
25

> <canonical_smiles>
CNCCCN1C2=C(C=CC=C2)CCC3=C1C=CC=C3

> <standard_relation>
=

> <Publication_ID>
nan

> <predicted_activity_value>
nan

> <actual_activity_value>
-0.14301480025409513

> <Compound>
Desipramine

> <standard_units>
uM

> hash
17858186531061072819

$$$$
12
XXILIB    08252103503D 0   0.00000     0.00000

 20 22  0     1  0            999 V2000
   -0.5576   -0.0000    1.3460 N   0  0  2  0  0  3           0  0  0
    1.7079   -1.1684   -2.1794 N   0  0  0  0  0  3           0  0  0
   -1.3762   -1.1240    1.6264 C   0  0  0  0  0  4           0  0  0
   -0.3440    1.1284    2.1825 C   0  0  0  0  0  4           0  0  0
   -1.2063   -1.8792    2.7983 C   0  0  0  0  0  4           0  0  0
   -0.3596    1.0791    3.5983 C   0  0  0  0  0  4           0  0  0
   -2.3889   -1.5166    0.7265 C   0  0  0  0  0  4           0  0  0
   -0.1508    2.4052    1.5932 C   0  0  0  0  0  4           0  0  0
   -2.0203   -2.9977    3.0438 C   0  0  0  0  0  4           0  0  0
   -0.2197    2.2769    4.3418 C   0  0  0  0  0  4           0  0  0
   -3.1967   -2.6263    0.9788 C   0  0  0  0  0  4           0  0  0
    0.0042    3.5720    2.3453 C   0  0  0  0  0  4           0  0  0
   -3.0096   -3.3696    2.1372 C   0  0  0  0  0  4           0  0  0
   -0.0358    3.5088    3.7252 C   0  0  0  0  0  4           0  0  0
    0.0000    0.0000    0.0000 C   0  0  0  0  0  4           0  0  0
    2.1172    0.0000   -1.4095 C   0  0  0  0  0  4           0  0  0
    2.2841   -1.1409   -3.5169 C   0  0  0  0  0  4           0  0  0
   -0.1503   -1.4923    3.7932 C   0  0  0  0  0  4           0  0  0
   -0.5151   -0.1675    4.4460 C   0  0  0  0  0  4           0  0  0
    1.5280    0.0000    0.0000 C   0  0  0  0  0  4           0  0  0
  1  3  1  0     0  0
  1  4  1  0     0  0
  1 15  1  0     0  0
  2 16  1  0     0  0
  2 17  1  0     0  0
  3  5  2  0     0  0
  3  7  1  0     0  0
  4  6  2  0     0  0
  4  8  1  0     0  0
  5  9  1  0     0  0
  5 18  1  0     0  0
  6 10  1  0     0  0
  6 19  1  0     0  0
  7 11  2  0     0  0
  8 12  2  0     0  0
  9 13  2  0     0  0
 10 14  2  0     0  0
 11 13  1  0     0  0
 12 14  1  0     0  0
 15 20  1  0     0  0
 16 20  1  0     0  0
 18 19  1  0     0  0
M  END
> <standard_type>
pIC50

> <# Confs.>
25

> <canonical_smiles>
CNCCCN1C2=C(C=CC=C2)CCC3=C1C=CC=C3

> <standard_relation>
=

> <Publication_ID>
nan

> <predicted_activity_value>
nan

> <actual_activity_value>
-0.14301480025409513

> <Compound>
Desipramine

> <standard_units>
uM

> hash
17858186531061072819

$$$$
12
XXILIB    08252103503D 0   0.00000     0.00000

 20 22  0     1  0            999 V2000
   -0.5576    0.0000    1.3460 N   0  0  2  0  0  3           0  0  0
    3.5751    1.2115    0.6995 N   0  0  0  0  0  3           0  0  0
   -1.3763    1.1231    1.6281 C   0  0  0  0  0  4           0  0  0
   -0.3659   -1.1370    2.1761 C   0  0  0  0  0  4           0  0  0
   -1.2100    1.8694    2.8060 C   0  0  0  0  0  4           0  0  0
   -0.3830   -1.0946    3.5922 C   0  0  0  0  0  4           0  0  0
   -2.3859    1.5215    0.7275 C   0  0  0  0  0  4           0  0  0
   -0.1957   -2.4137    1.5795 C   0  0  0  0  0  4           0  0  0
   -2.0286    2.9824    3.0595 C   0  0  0  0  0  4           0  0  0
   -0.2668   -2.2989    4.3293 C   0  0  0  0  0  4           0  0  0
   -3.1967    2.6272    0.9866 C   0  0  0  0  0  4           0  0  0
   -0.0646   -3.5871    2.3258 C   0  0  0  0  0  4           0  0  0
   -3.0161    3.3595    2.1530 C   0  0  0  0  0  4           0  0  0
   -0.1062   -3.5307    3.7061 C   0  0  0  0  0  4           0  0  0
    0.0000    0.0000   -0.0000 C   0  0  0  0  0  4           0  0  0
    2.1172    1.2206    0.7047 C   0  0  0  0  0  4           0  0  0
    4.1074    2.3857    1.3774 C   0  0  0  0  0  4           0  0  0
   -0.1525    1.4771    3.7971 C   0  0  0  0  0  4           0  0  0
   -0.5160    0.1503    4.4468 C   0  0  0  0  0  4           0  0  0
    1.5280    0.0000   -0.0000 C   0  0  0  0  0  4           0  0  0
  1  3  1  0     0  0
  1  4  1  0     0  0
  1 15  1  0     0  0
  2 16  1  0     0  0
  2 17  1  0     0  0
  3  5  2  0     0  0
  3  7  1  0     0  0
  4  6  2  0     0  0
  4  8  1  0     0  0
  5  9  1  0     0  0
  5 18  1  0     0  0
  6 10  1  0     0  0
  6 19  1  0     0  0
  7 11  2  0     0  0
  8 12  2  0     0  0
  9 13  2  0     0  0
 10 14  2  0     0  0
 11 13  1  0     0  0
 12 14  1  0     0  0
 15 20  1  0     0  0
 16 20  1  0     0  0
 18 19  1  0     0  0
M  END
> <standard_type>
pIC50

> <# Confs.>
25

> <canonical_smiles>
CNCCCN1C2=C(C=CC=C2)CCC3=C1C=CC=C3

> <standard_relation>
=

> <Publication_ID>
nan

> <predicted_activity_value>
nan

> <actual_activity_value>
-0.14301480025409513

> <Compound>
Desipramine

> <standard_units>
uM

> hash
17858186531061072819

$$$$
12
XXILIB    08252103503D 0   0.00000     0.00000

 20 22  0     1  0            999 V2000
   -0.5576   -0.0000    1.3460 N   0  0  2  0  0  3           0  0  0
    3.5751   -1.2115    0.6995 N   0  0  0  0  0  3           0  0  0
   -0.7773    1.2969    1.8762 C   0  0  0  0  0  4           0  0  0
   -0.9523   -1.2321    1.9331 C   0  0  0  0  0  4           0  0  0
   -0.3411    1.6409    3.1659 C   0  0  0  0  0  4           0  0  0
   -1.0150   -1.4584    3.3304 C   0  0  0  0  0  4           0  0  0
   -1.4447    2.2805    1.1174 C   0  0  0  0  0  4           0  0  0
   -1.3631   -2.3022    1.0959 C   0  0  0  0  0  4           0  0  0
   -0.5639    2.9344    3.6663 C   0  0  0  0  0  4           0  0  0
   -1.5033   -2.6961    3.8171 C   0  0  0  0  0  4           0  0  0
   -1.6644    3.5631    1.6214 C   0  0  0  0  0  4           0  0  0
   -1.8244   -3.5217    1.5967 C   0  0  0  0  0  4           0  0  0
   -1.2214    3.8907    2.8965 C   0  0  0  0  0  4           0  0  0
   -1.9005   -3.7179    2.9628 C   0  0  0  0  0  4           0  0  0
    0.0000    0.0000    0.0000 C   0  0  0  0  0  4           0  0  0
    2.1172   -1.2206    0.7047 C   0  0  0  0  0  4           0  0  0
    4.1074   -2.3857    1.3774 C   0  0  0  0  0  4           0  0  0
    0.3673    0.6230    4.0125 C   0  0  0  0  0  4           0  0  0
   -0.5982   -0.4824    4.4128 C   0  0  0  0  0  4           0  0  0
    1.5280    0.0000    0.0000 C   0  0  0  0  0  4           0  0  0
  1  3  1  0     0  0
  1  4  1  0     0  0
  1 15  1  0     0  0
  2 16  1  0     0  0
  2 17  1  0     0  0
  3  5  2  0     0  0
  3  7  1  0     0  0
  4  6  2  0     0  0
  4  8  1  0     0  0
  5  9  1  0     0  0
  5 18  1  0     0  0
  6 10  1  0     0  0
  6 19  1  0     0  0
  7 11  2  0     0  0
  8 12  2  0     0  0
  9 13  2  0     0  0
 10 14  2  0     0  0
 11 13  1  0     0  0
 12 14  1  0     0  0
 15 20  1  0     0  0
 16 20  1  0     0  0
 18 19  1  0     0  0
M  END
> <standard_type>
pIC50

> <# Confs.>
25

> <canonical_smiles>
CNCCCN1C2=C(C=CC=C2)CCC3=C1C=CC=C3

> <standard_relation>
=

> <Publication_ID>
nan

> <predicted_activity_value>
nan

> <actual_activity_value>
-0.14301480025409513

> <Compound>
Desipramine

> <standard_units>
uM

> hash
17858186531061072819

$$$$
12
XXILIB    08252103503D 0   0.00000     0.00000

 20 22  0     1  0            999 V2000
   -0.5576    0.0000    1.3460 N   0  0  2  0  0  3           0  0  0
    1.7079    1.1684   -2.1794 N   0  0  0  0  0  3           0  0  0
    0.1419   -0.8343    2.2554 C   0  0  0  0  0  4           0  0  0
   -1.7657    0.7056    1.5935 C   0  0  0  0  0  4           0  0  0
    0.5367   -0.3691    3.5203 C   0  0  0  0  0  4           0  0  0
   -2.1391    1.2164    2.8611 C   0  0  0  0  0  4           0  0  0
    0.4636   -2.1630    1.9082 C   0  0  0  0  0  4           0  0  0
   -2.6983    0.8810    0.5378 C   0  0  0  0  0  4           0  0  0
    1.2427   -1.2114    4.3956 C   0  0  0  0  0  4           0  0  0
   -3.4050    1.8320    3.0223 C   0  0  0  0  0  4           0  0  0
    1.1614   -2.9956    2.7843 C   0  0  0  0  0  4           0  0  0
   -3.9339    1.5081    0.7139 C   0  0  0  0  0  4           0  0  0
    1.5544   -2.5178    4.0279 C   0  0  0  0  0  4           0  0  0
   -4.2914    1.9808    1.9623 C   0  0  0  0  0  4           0  0  0
    0.0000    0.0000    0.0000 C   0  0  0  0  0  4           0  0  0
    2.1172    0.0000   -1.4095 C   0  0  0  0  0  4           0  0  0
    2.2841    1.1409   -3.5169 C   0  0  0  0  0  4           0  0  0
    0.2051    1.0338    3.9404 C   0  0  0  0  0  4           0  0  0
   -1.2985    1.1780    4.1215 C   0  0  0  0  0  4           0  0  0
    1.5280   -0.0000    0.0000 C   0  0  0  0  0  4           0  0  0
  1  3  1  0     0  0
  1  4  1  0     0  0
  1 15  1  0     0  0
  2 16  1  0     0  0
  2 17  1  0     0  0
  3  5  2  0     0  0
  3  7  1  0     0  0
  4  6  2  0     0  0
  4  8  1  0     0  0
  5  9  1  0     0  0
  5 18  1  0     0  0
  6 10  1  0     0  0
  6 19  1  0     0  0
  7 11  2  0     0  0
  8 12  2  0     0  0
  9 13  2  0     0  0
 10 14  2  0     0  0
 11 13  1  0     0  0
 12 14  1  0     0  0
 15 20  1  0     0  0
 16 20  1  0     0  0
 18 19  1  0     0  0
M  END
> <standard_type>
pIC50

> <# Confs.>
25

> <canonical_smiles>
CNCCCN1C2=C(C=CC=C2)CCC3=C1C=CC=C3

> <standard_relation>
=

> <Publication_ID>
nan

> <predicted_activity_value>
nan

> <actual_activity_value>
-0.14301480025409513

> <Compound>
Desipramine

> <standard_units>
uM

> hash
17858186531061072819

$$$$
12
XXILIB    08252103503D 0   0.00000     0.00000

 20 22  0     1  0            999 V2000
   -0.5576    0.0000    1.3460 N   0  0  2  0  0  3           0  0  0
    3.5751   -0.0000   -1.3990 N   0  0  0  0  0  3           0  0  0
    0.1406    0.8336    2.2565 C   0  0  0  0  0  4           0  0  0
   -1.7781   -0.6847    1.5910 C   0  0  0  0  0  4           0  0  0
    0.5244    0.3679    3.5245 C   0  0  0  0  0  4           0  0  0
   -2.1583   -1.1955    2.8568 C   0  0  0  0  0  4           0  0  0
    0.4686    2.1607    1.9100 C   0  0  0  0  0  4           0  0  0
   -2.7152   -0.8364    0.5357 C   0  0  0  0  0  4           0  0  0
    1.2217    1.2104    4.4060 C   0  0  0  0  0  4           0  0  0
   -3.4352   -1.7882    3.0167 C   0  0  0  0  0  4           0  0  0
    1.1600    2.9928    2.7915 C   0  0  0  0  0  4           0  0  0
   -3.9622   -1.4407    0.7111 C   0  0  0  0  0  4           0  0  0
    1.5386    2.5160    4.0399 C   0  0  0  0  0  4           0  0  0
   -4.3265   -1.9134    1.9578 C   0  0  0  0  0  4           0  0  0
    0.0000    0.0000    0.0000 C   0  0  0  0  0  4           0  0  0
    2.1172    0.0000   -1.4095 C   0  0  0  0  0  4           0  0  0
    4.1074    0.0000   -2.7548 C   0  0  0  0  0  4           0  0  0
    0.1895   -1.0359    3.9388 C   0  0  0  0  0  4           0  0  0
   -1.3146   -1.1805    4.1160 C   0  0  0  0  0  4           0  0  0
    1.5280   -0.0000   -0.0000 C   0  0  0  0  0  4           0  0  0
  1  3  1  0     0  0
  1  4  1  0     0  0
  1 15  1  0     0  0
  2 16  1  0     0  0
  2 17  1  0     0  0
  3  5  2  0     0  0
  3  7  1  0     0  0
  4  6  2  0     0  0
  4  8  1  0     0  0
  5  9  1  0     0  0
  5 18  1  0     0  0
  6 10  1  0     0  0
  6 19  1  0     0  0
  7 11  2  0     0  0
  8 12  2  0     0  0
  9 13  2  0     0  0
 10 14  2  0     0  0
 11 13  1  0     0  0
 12 14  1  0     0  0
 15 20  1  0     0  0
 16 20  1  0     0  0
 18 19  1  0     0  0
M  END
> <standard_type>
pIC50

> <# Confs.>
25

> <canonical_smiles>
CNCCCN1C2=C(C=CC=C2)CCC3=C1C=CC=C3

> <standard_relation>
=

> <Publication_ID>
nan

> <predicted_activity_value>
nan

> <actual_activity_value>
-0.14301480025409513

> <Compound>
Desipramine

> <standard_units>
uM

> hash
17858186531061072819

$$$$
12
XXILIB    08252103503D 0   0.00000     0.00000

 20 22  0     1  0            999 V2000
   -0.5576    0.0000    1.3460 N   0  0  2  0  0  3           0  0  0
    3.5751    1.2115    0.6995 N   0  0  0  0  0  3           0  0  0
   -0.7767   -1.2979    1.8748 C   0  0  0  0  0  4           0  0  0
   -0.9293    1.2360    1.9400 C   0  0  0  0  0  4           0  0  0
   -0.3328   -1.6492    3.1601 C   0  0  0  0  0  4           0  0  0
   -0.9874    1.4570    3.3382 C   0  0  0  0  0  4           0  0  0
   -1.4496   -2.2779    1.1157 C   0  0  0  0  0  4           0  0  0
   -1.3201    2.3182    1.1088 C   0  0  0  0  0  4           0  0  0
   -0.5487   -2.9469    3.6535 C   0  0  0  0  0  4           0  0  0
   -1.4520    2.7013    3.8313 C   0  0  0  0  0  4           0  0  0
   -1.6644   -3.5638    1.6136 C   0  0  0  0  0  4           0  0  0
   -1.7574    3.5441    1.6156 C   0  0  0  0  0  4           0  0  0
   -1.2102   -3.8994    2.8826 C   0  0  0  0  0  4           0  0  0
   -1.8290    3.7350    2.9824 C   0  0  0  0  0  4           0  0  0
    0.0000    0.0000    0.0000 C   0  0  0  0  0  4           0  0  0
    2.1172    1.2206    0.7047 C   0  0  0  0  0  4           0  0  0
    4.1074    2.3857    1.3774 C   0  0  0  0  0  4           0  0  0
    0.3766   -0.6359    4.0114 C   0  0  0  0  0  4           0  0  0
   -0.5894    0.4678    4.4152 C   0  0  0  0  0  4           0  0  0
    1.5280    0.0000   -0.0000 C   0  0  0  0  0  4           0  0  0
  1  3  1  0     0  0
  1  4  1  0     0  0
  1 15  1  0     0  0
  2 16  1  0     0  0
  2 17  1  0     0  0
  3  5  2  0     0  0
  3  7  1  0     0  0
  4  6  2  0     0  0
  4  8  1  0     0  0
  5  9  1  0     0  0
  5 18  1  0     0  0
  6 10  1  0     0  0
  6 19  1  0     0  0
  7 11  2  0     0  0
  8 12  2  0     0  0
  9 13  2  0     0  0
 10 14  2  0     0  0
 11 13  1  0     0  0
 12 14  1  0     0  0
 15 20  1  0     0  0
 16 20  1  0     0  0
 18 19  1  0     0  0
M  END
> <standard_type>
pIC50

> <# Confs.>
25

> <canonical_smiles>
CNCCCN1C2=C(C=CC=C2)CCC3=C1C=CC=C3

> <standard_relation>
=

> <Publication_ID>
nan

> <predicted_activity_value>
nan

> <actual_activity_value>
-0.14301480025409513

> <Compound>
Desipramine

> <standard_units>
uM

> hash
17858186531061072819

$$$$
12
XXILIB    08252103503D 0   0.00000     0.00000

 20 22  0     1  0            999 V2000
   -0.5576    0.0000    1.3460 N   0  0  2  0  0  3           0  0  0
    3.5751   -0.0000   -1.3990 N   0  0  0  0  0  3           0  0  0
    0.1419   -0.8343    2.2554 C   0  0  0  0  0  4           0  0  0
   -1.7657    0.7056    1.5935 C   0  0  0  0  0  4           0  0  0
    0.5367   -0.3691    3.5203 C   0  0  0  0  0  4           0  0  0
   -2.1391    1.2164    2.8611 C   0  0  0  0  0  4           0  0  0
    0.4636   -2.1630    1.9082 C   0  0  0  0  0  4           0  0  0
   -2.6983    0.8810    0.5378 C   0  0  0  0  0  4           0  0  0
    1.2427   -1.2114    4.3956 C   0  0  0  0  0  4           0  0  0
   -3.4050    1.8320    3.0223 C   0  0  0  0  0  4           0  0  0
    1.1614   -2.9956    2.7843 C   0  0  0  0  0  4           0  0  0
   -3.9339    1.5081    0.7139 C   0  0  0  0  0  4           0  0  0
    1.5544   -2.5178    4.0279 C   0  0  0  0  0  4           0  0  0
   -4.2914    1.9808    1.9623 C   0  0  0  0  0  4           0  0  0
    0.0000    0.0000    0.0000 C   0  0  0  0  0  4           0  0  0
    2.1172    0.0000   -1.4095 C   0  0  0  0  0  4           0  0  0
    4.1074    0.0000   -2.7548 C   0  0  0  0  0  4           0  0  0
    0.2051    1.0338    3.9404 C   0  0  0  0  0  4           0  0  0
   -1.2985    1.1780    4.1215 C   0  0  0  0  0  4           0  0  0
    1.5280   -0.0000   -0.0000 C   0  0  0  0  0  4           0  0  0
  1  3  1  0     0  0
  1  4  1  0     0  0
  1 15  1  0     0  0
  2 16  1  0     0  0
  2 17  1  0     0  0
  3  5  2  0     0  0
  3  7  1  0     0  0
  4  6  2  0     0  0
  4  8  1  0     0  0
  5  9  1  0     0  0
  5 18  1  0     0  0
  6 10  1  0     0  0
  6 19  1  0     0  0
  7 11  2  0     0  0
  8 12  2  0     0  0
  9 13  2  0     0  0
 10 14  2  0     0  0
 11 13  1  0     0  0
 12 14  1  0     0  0
 15 20  1  0     0  0
 16 20  1  0     0  0
 18 19  1  0     0  0
M  END
> <standard_type>
pIC50

> <# Confs.>
25

> <canonical_smiles>
CNCCCN1C2=C(C=CC=C2)CCC3=C1C=CC=C3

> <standard_relation>
=

> <Publication_ID>
nan

> <predicted_activity_value>
nan

> <actual_activity_value>
-0.14301480025409513

> <Compound>
Desipramine

> <standard_units>
uM

> hash
17858186531061072819

$$$$
12
XXILIB    08252103503D 0   0.00000     0.00000

 20 22  0     1  0            999 V2000
   -0.5576    0.0000    1.3460 N   0  0  2  0  0  3           0  0  0
    1.7079   -1.1684   -2.1794 N   0  0  0  0  0  3           0  0  0
   -0.1782    1.1231    2.1244 C   0  0  0  0  0  4           0  0  0
   -1.5042   -0.9970    1.7045 C   0  0  0  0  0  4           0  0  0
    0.3060    0.9728    3.4340 C   0  0  0  0  0  4           0  0  0
   -1.7304   -1.4315    3.0341 C   0  0  0  0  0  4           0  0  0
   -0.2790    2.4285    1.6003 C   0  0  0  0  0  4           0  0  0
   -2.3226   -1.5738    0.6984 C   0  0  0  0  0  4           0  0  0
    0.6824    2.1002    4.1826 C   0  0  0  0  0  4           0  0  0
   -2.7576   -2.3709    3.2974 C   0  0  0  0  0  4           0  0  0
    0.0951    3.5443    2.3503 C   0  0  0  0  0  4           0  0  0
   -3.3182   -2.5127    0.9779 C   0  0  0  0  0  4           0  0  0
    0.5783    3.3793    3.6421 C   0  0  0  0  0  4           0  0  0
   -3.5410   -2.9088    2.2832 C   0  0  0  0  0  4           0  0  0
    0.0000    0.0000    0.0000 C   0  0  0  0  0  4           0  0  0
    2.1172    0.0000   -1.4095 C   0  0  0  0  0  4           0  0  0
    2.1405   -2.3990   -1.5314 C   0  0  0  0  0  4           0  0  0
    0.4230   -0.3980    4.0356 C   0  0  0  0  0  4           0  0  0
   -0.9617   -0.9859    4.2622 C   0  0  0  0  0  4           0  0  0
    1.5280    0.0000    0.0000 C   0  0  0  0  0  4           0  0  0
  1  3  1  0     0  0
  1  4  1  0     0  0
  1 15  1  0     0  0
  2 16  1  0     0  0
  2 17  1  0     0  0
  3  5  2  0     0  0
  3  7  1  0     0  0
  4  6  2  0     0  0
  4  8  1  0     0  0
  5  9  1  0     0  0
  5 18  1  0     0  0
  6 10  1  0     0  0
  6 19  1  0     0  0
  7 11  2  0     0  0
  8 12  2  0     0  0
  9 13  2  0     0  0
 10 14  2  0     0  0
 11 13  1  0     0  0
 12 14  1  0     0  0
 15 20  1  0     0  0
 16 20  1  0     0  0
 18 19  1  0     0  0
M  END
> <standard_type>
pIC50

> <# Confs.>
25

> <canonical_smiles>
CNCCCN1C2=C(C=CC=C2)CCC3=C1C=CC=C3

> <standard_relation>
=

> <Publication_ID>
nan

> <predicted_activity_value>
nan

> <actual_activity_value>
-0.14301480025409513

> <Compound>
Desipramine

> <standard_units>
uM

> hash
17858186531061072819

$$$$
12
XXILIB    08252103503D 0   0.00000     0.00000

 20 22  0     1  0            999 V2000
   -0.5576    0.0000    1.3460 N   0  0  2  0  0  3           0  0  0
    1.7079   -1.1684   -2.1794 N   0  0  0  0  0  3           0  0  0
   -0.1771   -1.1240    2.1232 C   0  0  0  0  0  4           0  0  0
   -1.4858    1.0124    1.7095 C   0  0  0  0  0  4           0  0  0
    0.3174   -0.9772    3.4294 C   0  0  0  0  0  4           0  0  0
   -1.7057    1.4445    3.0407 C   0  0  0  0  0  4           0  0  0
   -0.2844   -2.4288    1.5984 C   0  0  0  0  0  4           0  0  0
   -2.2925    1.6100    0.7059 C   0  0  0  0  0  4           0  0  0
    0.7022   -2.1064    4.1717 C   0  0  0  0  0  4           0  0  0
   -2.7153    2.4018    3.3080 C   0  0  0  0  0  4           0  0  0
    0.0957   -3.5464    2.3428 C   0  0  0  0  0  4           0  0  0
   -3.2701    2.5667    0.9889 C   0  0  0  0  0  4           0  0  0
    0.5929   -3.3844    3.6296 C   0  0  0  0  0  4           0  0  0
   -3.4865    2.9605    2.2957 C   0  0  0  0  0  4           0  0  0
    0.0000    0.0000    0.0000 C   0  0  0  0  0  4           0  0  0
    2.1172    0.0000   -1.4095 C   0  0  0  0  0  4           0  0  0
    2.1405   -2.3990   -1.5314 C   0  0  0  0  0  4           0  0  0
    0.4372    0.3909    4.0365 C   0  0  0  0  0  4           0  0  0
   -0.9473    0.9778    4.2670 C   0  0  0  0  0  4           0  0  0
    1.5280    0.0000    0.0000 C   0  0  0  0  0  4           0  0  0
  1  3  1  0     0  0
  1  4  1  0     0  0
  1 15  1  0     0  0
  2 16  1  0     0  0
  2 17  1  0     0  0
  3  5  2  0     0  0
  3  7  1  0     0  0
  4  6  2  0     0  0
  4  8  1  0     0  0
  5  9  1  0     0  0
  5 18  1  0     0  0
  6 10  1  0     0  0
  6 19  1  0     0  0
  7 11  2  0     0  0
  8 12  2  0     0  0
  9 13  2  0     0  0
 10 14  2  0     0  0
 11 13  1  0     0  0
 12 14  1  0     0  0
 15 20  1  0     0  0
 16 20  1  0     0  0
 18 19  1  0     0  0
M  END
> <standard_type>
pIC50

> <# Confs.>
25

> <canonical_smiles>
CNCCCN1C2=C(C=CC=C2)CCC3=C1C=CC=C3

> <standard_relation>
=

> <Publication_ID>
nan

> <predicted_activity_value>
nan

> <actual_activity_value>
-0.14301480025409513

> <Compound>
Desipramine

> <standard_units>
uM

> hash
17858186531061072819

$$$$
12
XXILIB    08252103503D 0   0.00000     0.00000

 20 22  0     1  0            999 V2000
   -0.5576   -0.0000    1.3460 N   0  0  2  0  0  3           0  0  0
    1.7079   -2.4717    0.0779 N   0  0  0  0  0  3           0  0  0
   -1.3762   -1.1240    1.6264 C   0  0  0  0  0  4           0  0  0
   -0.3440    1.1284    2.1825 C   0  0  0  0  0  4           0  0  0
   -1.2063   -1.8792    2.7983 C   0  0  0  0  0  4           0  0  0
   -0.3596    1.0791    3.5983 C   0  0  0  0  0  4           0  0  0
   -2.3889   -1.5166    0.7265 C   0  0  0  0  0  4           0  0  0
   -0.1508    2.4052    1.5932 C   0  0  0  0  0  4           0  0  0
   -2.0203   -2.9977    3.0438 C   0  0  0  0  0  4           0  0  0
   -0.2197    2.2769    4.3418 C   0  0  0  0  0  4           0  0  0
   -3.1967   -2.6263    0.9788 C   0  0  0  0  0  4           0  0  0
    0.0042    3.5720    2.3453 C   0  0  0  0  0  4           0  0  0
   -3.0096   -3.3696    2.1372 C   0  0  0  0  0  4           0  0  0
   -0.0358    3.5088    3.7252 C   0  0  0  0  0  4           0  0  0
    0.0000    0.0000    0.0000 C   0  0  0  0  0  4           0  0  0
    2.1172   -1.2206    0.7047 C   0  0  0  0  0  4           0  0  0
    2.2841   -3.6162    0.7704 C   0  0  0  0  0  4           0  0  0
   -0.1503   -1.4923    3.7932 C   0  0  0  0  0  4           0  0  0
   -0.5151   -0.1675    4.4460 C   0  0  0  0  0  4           0  0  0
    1.5280    0.0000   -0.0000 C   0  0  0  0  0  4           0  0  0
  1  3  1  0     0  0
  1  4  1  0     0  0
  1 15  1  0     0  0
  2 16  1  0     0  0
  2 17  1  0     0  0
  3  5  2  0     0  0
  3  7  1  0     0  0
  4  6  2  0     0  0
  4  8  1  0     0  0
  5  9  1  0     0  0
  5 18  1  0     0  0
  6 10  1  0     0  0
  6 19  1  0     0  0
  7 11  2  0     0  0
  8 12  2  0     0  0
  9 13  2  0     0  0
 10 14  2  0     0  0
 11 13  1  0     0  0
 12 14  1  0     0  0
 15 20  1  0     0  0
 16 20  1  0     0  0
 18 19  1  0     0  0
M  END
> <standard_type>
pIC50

> <# Confs.>
25

> <canonical_smiles>
CNCCCN1C2=C(C=CC=C2)CCC3=C1C=CC=C3

> <standard_relation>
=

> <Publication_ID>
nan

> <predicted_activity_value>
nan

> <actual_activity_value>
-0.14301480025409513

> <Compound>
Desipramine

> <standard_units>
uM

> hash
17858186531061072819

$$$$
12
XXILIB    08252103503D 0   0.00000     0.00000

 20 22  0     1  0            999 V2000
   -0.5576    0.0000    1.3460 N   0  0  2  0  0  3           0  0  0
    1.7079    1.1684   -2.1794 N   0  0  0  0  0  3           0  0  0
    0.1542    0.8413    2.2475 C   0  0  0  0  0  4           0  0  0
   -1.6654   -0.8608    1.6025 C   0  0  0  0  0  4           0  0  0
    0.5754    0.3979    3.5127 C   0  0  0  0  0  4           0  0  0
   -2.0238   -1.3468    2.8845 C   0  0  0  0  0  4           0  0  0
    0.4822    2.1675    1.8856 C   0  0  0  0  0  4           0  0  0
   -2.5221   -1.2388    0.5334 C   0  0  0  0  0  4           0  0  0
    1.3029    1.2521    4.3637 C   0  0  0  0  0  4           0  0  0
   -3.2044   -2.1158    3.0463 C   0  0  0  0  0  4           0  0  0
    1.2009    3.0109    2.7364 C   0  0  0  0  0  4           0  0  0
   -3.6688   -2.0191    0.7084 C   0  0  0  0  0  4           0  0  0
    1.6150    2.5510    3.9769 C   0  0  0  0  0  4           0  0  0
   -4.0172   -2.4522    1.9720 C   0  0  0  0  0  4           0  0  0
    0.0000    0.0000    0.0000 C   0  0  0  0  0  4           0  0  0
    2.1172    0.0000   -1.4095 C   0  0  0  0  0  4           0  0  0
    2.2841    1.1409   -3.5169 C   0  0  0  0  0  4           0  0  0
    0.2602   -0.9919    3.9814 C   0  0  0  0  0  4           0  0  0
   -1.2415   -1.1320    4.1611 C   0  0  0  0  0  4           0  0  0
    1.5280   -0.0000    0.0000 C   0  0  0  0  0  4           0  0  0
  1  3  1  0     0  0
  1  4  1  0     0  0
  1 15  1  0     0  0
  2 16  1  0     0  0
  2 17  1  0     0  0
  3  5  2  0     0  0
  3  7  1  0     0  0
  4  6  2  0     0  0
  4  8  1  0     0  0
  5  9  1  0     0  0
  5 18  1  0     0  0
  6 10  1  0     0  0
  6 19  1  0     0  0
  7 11  2  0     0  0
  8 12  2  0     0  0
  9 13  2  0     0  0
 10 14  2  0     0  0
 11 13  1  0     0  0
 12 14  1  0     0  0
 15 20  1  0     0  0
 16 20  1  0     0  0
 18 19  1  0     0  0
M  END
> <standard_type>
pIC50

> <# Confs.>
25

> <canonical_smiles>
CNCCCN1C2=C(C=CC=C2)CCC3=C1C=CC=C3

> <standard_relation>
=

> <Publication_ID>
nan

> <predicted_activity_value>
nan

> <actual_activity_value>
-0.14301480025409513

> <Compound>
Desipramine

> <standard_units>
uM

> hash
17858186531061072819

$$$$
12
XXILIB    08252103503D 0   0.00000     0.00000

 20 22  0     1  0            999 V2000
   -0.5576    0.0000    1.3460 N   0  0  2  0  0  3           0  0  0
    3.5751   -0.0000   -1.3990 N   0  0  0  0  0  3           0  0  0
   -0.1782    1.1231    2.1244 C   0  0  0  0  0  4           0  0  0
   -1.5042   -0.9970    1.7045 C   0  0  0  0  0  4           0  0  0
    0.3060    0.9728    3.4340 C   0  0  0  0  0  4           0  0  0
   -1.7304   -1.4315    3.0341 C   0  0  0  0  0  4           0  0  0
   -0.2790    2.4285    1.6003 C   0  0  0  0  0  4           0  0  0
   -2.3226   -1.5738    0.6984 C   0  0  0  0  0  4           0  0  0
    0.6824    2.1002    4.1826 C   0  0  0  0  0  4           0  0  0
   -2.7576   -2.3709    3.2974 C   0  0  0  0  0  4           0  0  0
    0.0951    3.5443    2.3503 C   0  0  0  0  0  4           0  0  0
   -3.3182   -2.5127    0.9779 C   0  0  0  0  0  4           0  0  0
    0.5783    3.3793    3.6421 C   0  0  0  0  0  4           0  0  0
   -3.5410   -2.9088    2.2832 C   0  0  0  0  0  4           0  0  0
    0.0000    0.0000    0.0000 C   0  0  0  0  0  4           0  0  0
    2.1172    0.0000   -1.4095 C   0  0  0  0  0  4           0  0  0
    4.0927   -1.1774   -0.7154 C   0  0  0  0  0  4           0  0  0
    0.4230   -0.3980    4.0356 C   0  0  0  0  0  4           0  0  0
   -0.9617   -0.9859    4.2622 C   0  0  0  0  0  4           0  0  0
    1.5280   -0.0000   -0.0000 C   0  0  0  0  0  4           0  0  0
  1  3  1  0     0  0
  1  4  1  0     0  0
  1 15  1  0     0  0
  2 16  1  0     0  0
  2 17  1  0     0  0
  3  5  2  0     0  0
  3  7  1  0     0  0
  4  6  2  0     0  0
  4  8  1  0     0  0
  5  9  1  0     0  0
  5 18  1  0     0  0
  6 10  1  0     0  0
  6 19  1  0     0  0
  7 11  2  0     0  0
  8 12  2  0     0  0
  9 13  2  0     0  0
 10 14  2  0     0  0
 11 13  1  0     0  0
 12 14  1  0     0  0
 15 20  1  0     0  0
 16 20  1  0     0  0
 18 19  1  0     0  0
M  END
> <standard_type>
pIC50

> <# Confs.>
25

> <canonical_smiles>
CNCCCN1C2=C(C=CC=C2)CCC3=C1C=CC=C3

> <standard_relation>
=

> <Publication_ID>
nan

> <predicted_activity_value>
nan

> <actual_activity_value>
-0.14301480025409513

> <Compound>
Desipramine

> <standard_units>
uM

> hash
17858186531061072819

$$$$
12
XXILIB    08252103503D 0   0.00000     0.00000

 20 22  0     1  0            999 V2000
   -0.5576    0.0000    1.3460 N   0  0  2  0  0  3           0  0  0
    3.5751   -0.0000   -1.3990 N   0  0  0  0  0  3           0  0  0
   -1.3767    1.1335    1.6133 C   0  0  0  0  0  4           0  0  0
   -0.1758   -1.0607    2.2196 C   0  0  0  0  0  4           0  0  0
   -1.2188    1.9166    2.7694 C   0  0  0  0  0  4           0  0  0
   -0.2138   -0.9879    3.6343 C   0  0  0  0  0  4           0  0  0
   -2.3809    1.5259    0.6995 C   0  0  0  0  0  4           0  0  0
    0.2280   -2.3087    1.6726 C   0  0  0  0  0  4           0  0  0
   -2.0303    3.0476    2.9829 C   0  0  0  0  0  4           0  0  0
    0.0907   -2.1347    4.4113 C   0  0  0  0  0  4           0  0  0
   -3.1850    2.6468    0.9194 C   0  0  0  0  0  4           0  0  0
    0.5489   -3.4216    2.4556 C   0  0  0  0  0  4           0  0  0
   -3.0070    3.4113    2.0621 C   0  0  0  0  0  4           0  0  0
    0.4710   -3.3375    3.8313 C   0  0  0  0  0  4           0  0  0
    0.0000    0.0000   -0.0000 C   0  0  0  0  0  4           0  0  0
    2.1172    0.0000   -1.4095 C   0  0  0  0  0  4           0  0  0
    4.0927   -1.1774   -0.7154 C   0  0  0  0  0  4           0  0  0
   -0.1841    1.5651    3.7973 C   0  0  0  0  0  4           0  0  0
   -0.5517    0.2422    4.4468 C   0  0  0  0  0  4           0  0  0
    1.5280   -0.0000   -0.0000 C   0  0  0  0  0  4           0  0  0
  1  3  1  0     0  0
  1  4  1  0     0  0
  1 15  1  0     0  0
  2 16  1  0     0  0
  2 17  1  0     0  0
  3  5  2  0     0  0
  3  7  1  0     0  0
  4  6  2  0     0  0
  4  8  1  0     0  0
  5  9  1  0     0  0
  5 18  1  0     0  0
  6 10  1  0     0  0
  6 19  1  0     0  0
  7 11  2  0     0  0
  8 12  2  0     0  0
  9 13  2  0     0  0
 10 14  2  0     0  0
 11 13  1  0     0  0
 12 14  1  0     0  0
 15 20  1  0     0  0
 16 20  1  0     0  0
 18 19  1  0     0  0
M  END
> <standard_type>
pIC50

> <# Confs.>
25

> <canonical_smiles>
CNCCCN1C2=C(C=CC=C2)CCC3=C1C=CC=C3

> <standard_relation>
=

> <Publication_ID>
nan

> <predicted_activity_value>
nan

> <actual_activity_value>
-0.14301480025409513

> <Compound>
Desipramine

> <standard_units>
uM

> hash
17858186531061072819

$$$$
12
XXILIB    08252103503D 0   0.00000     0.00000

 20 22  0     1  0            999 V2000
   -0.5576    0.0000    1.3460 N   0  0  2  0  0  3           0  0  0
    3.5751   -0.0000   -1.3990 N   0  0  0  0  0  3           0  0  0
   -0.2272    1.0948    2.1998 C   0  0  0  0  0  4           0  0  0
   -1.3397   -1.1570    1.6280 C   0  0  0  0  0  4           0  0  0
   -0.3054    1.0611    3.6145 C   0  0  0  0  0  4           0  0  0
   -1.1815   -1.9006    2.8102 C   0  0  0  0  0  4           0  0  0
    0.1622    2.3381    1.6312 C   0  0  0  0  0  4           0  0  0
   -2.3073   -1.6140    0.7047 C   0  0  0  0  0  4           0  0  0
   -0.0585    2.2372    4.3675 C   0  0  0  0  0  4           0  0  0
   -1.9571   -3.0540    3.0400 C   0  0  0  0  0  4           0  0  0
    0.4259    3.4812    2.3917 C   0  0  0  0  0  4           0  0  0
   -3.0763   -2.7563    0.9409 C   0  0  0  0  0  4           0  0  0
    0.3055    3.4340    3.7659 C   0  0  0  0  0  4           0  0  0
   -2.8990   -3.4797    2.1099 C   0  0  0  0  0  4           0  0  0
    0.0000    0.0000    0.0000 C   0  0  0  0  0  4           0  0  0
    2.1172    0.0000   -1.4095 C   0  0  0  0  0  4           0  0  0
    4.0927    1.1774   -0.7154 C   0  0  0  0  0  4           0  0  0
   -0.6296   -0.1556    4.4521 C   0  0  0  0  0  4           0  0  0
   -0.1894   -1.4798    3.8537 C   0  0  0  0  0  4           0  0  0
    1.5280   -0.0000   -0.0000 C   0  0  0  0  0  4           0  0  0
  1  3  1  0     0  0
  1  4  1  0     0  0
  1 15  1  0     0  0
  2 16  1  0     0  0
  2 17  1  0     0  0
  3  5  2  0     0  0
  3  7  1  0     0  0
  4  6  2  0     0  0
  4  8  1  0     0  0
  5  9  1  0     0  0
  5 18  1  0     0  0
  6 10  1  0     0  0
  6 19  1  0     0  0
  7 11  2  0     0  0
  8 12  2  0     0  0
  9 13  2  0     0  0
 10 14  2  0     0  0
 11 13  1  0     0  0
 12 14  1  0     0  0
 15 20  1  0     0  0
 16 20  1  0     0  0
 18 19  1  0     0  0
M  END
> <standard_type>
pIC50

> <# Confs.>
25

> <canonical_smiles>
CNCCCN1C2=C(C=CC=C2)CCC3=C1C=CC=C3

> <standard_relation>
=

> <Publication_ID>
nan

> <predicted_activity_value>
nan

> <actual_activity_value>
-0.14301480025409513

> <Compound>
Desipramine

> <standard_units>
uM

> hash
17858186531061072819

$$$$
12
XXILIB    08252103503D 0   0.00000     0.00000

 20 22  0     1  0            999 V2000
   -0.5576    0.0000    1.3460 N   0  0  2  0  0  3           0  0  0
    3.5751   -0.0000   -1.3990 N   0  0  0  0  0  3           0  0  0
   -0.1771   -1.1240    2.1232 C   0  0  0  0  0  4           0  0  0
   -1.4858    1.0124    1.7095 C   0  0  0  0  0  4           0  0  0
    0.3174   -0.9772    3.4294 C   0  0  0  0  0  4           0  0  0
   -1.7057    1.4445    3.0407 C   0  0  0  0  0  4           0  0  0
   -0.2844   -2.4288    1.5984 C   0  0  0  0  0  4           0  0  0
   -2.2925    1.6100    0.7059 C   0  0  0  0  0  4           0  0  0
    0.7022   -2.1064    4.1717 C   0  0  0  0  0  4           0  0  0
   -2.7153    2.4018    3.3080 C   0  0  0  0  0  4           0  0  0
    0.0957   -3.5464    2.3428 C   0  0  0  0  0  4           0  0  0
   -3.2701    2.5667    0.9889 C   0  0  0  0  0  4           0  0  0
    0.5929   -3.3844    3.6296 C   0  0  0  0  0  4           0  0  0
   -3.4865    2.9605    2.2957 C   0  0  0  0  0  4           0  0  0
    0.0000    0.0000    0.0000 C   0  0  0  0  0  4           0  0  0
    2.1172    0.0000   -1.4095 C   0  0  0  0  0  4           0  0  0
    4.0927    1.1774   -0.7154 C   0  0  0  0  0  4           0  0  0
    0.4372    0.3909    4.0365 C   0  0  0  0  0  4           0  0  0
   -0.9473    0.9778    4.2670 C   0  0  0  0  0  4           0  0  0
    1.5280   -0.0000   -0.0000 C   0  0  0  0  0  4           0  0  0
  1  3  1  0     0  0
  1  4  1  0     0  0
  1 15  1  0     0  0
  2 16  1  0     0  0
  2 17  1  0     0  0
  3  5  2  0     0  0
  3  7  1  0     0  0
  4  6  2  0     0  0
  4  8  1  0     0  0
  5  9  1  0     0  0
  5 18  1  0     0  0
  6 10  1  0     0  0
  6 19  1  0     0  0
  7 11  2  0     0  0
  8 12  2  0     0  0
  9 13  2  0     0  0
 10 14  2  0     0  0
 11 13  1  0     0  0
 12 14  1  0     0  0
 15 20  1  0     0  0
 16 20  1  0     0  0
 18 19  1  0     0  0
M  END
> <standard_type>
pIC50

> <# Confs.>
25

> <canonical_smiles>
CNCCCN1C2=C(C=CC=C2)CCC3=C1C=CC=C3

> <standard_relation>
=

> <Publication_ID>
nan

> <predicted_activity_value>
nan

> <actual_activity_value>
-0.14301480025409513

> <Compound>
Desipramine

> <standard_units>
uM

> hash
17858186531061072819

$$$$
12
XXILIB    08252103503D 0   0.00000     0.00000

 20 22  0     1  0            999 V2000
   -0.5576   -0.0000    1.3460 N   0  0  2  0  0  3           0  0  0
    1.7079   -2.4717    0.0779 N   0  0  0  0  0  3           0  0  0
   -0.7773    1.2969    1.8762 C   0  0  0  0  0  4           0  0  0
   -0.9523   -1.2321    1.9331 C   0  0  0  0  0  4           0  0  0
   -0.3411    1.6409    3.1659 C   0  0  0  0  0  4           0  0  0
   -1.0150   -1.4584    3.3304 C   0  0  0  0  0  4           0  0  0
   -1.4447    2.2805    1.1174 C   0  0  0  0  0  4           0  0  0
   -1.3631   -2.3022    1.0959 C   0  0  0  0  0  4           0  0  0
   -0.5639    2.9344    3.6663 C   0  0  0  0  0  4           0  0  0
   -1.5033   -2.6961    3.8171 C   0  0  0  0  0  4           0  0  0
   -1.6644    3.5631    1.6214 C   0  0  0  0  0  4           0  0  0
   -1.8244   -3.5217    1.5967 C   0  0  0  0  0  4           0  0  0
   -1.2214    3.8907    2.8965 C   0  0  0  0  0  4           0  0  0
   -1.9005   -3.7179    2.9628 C   0  0  0  0  0  4           0  0  0
    0.0000    0.0000    0.0000 C   0  0  0  0  0  4           0  0  0
    2.1172   -1.2206    0.7047 C   0  0  0  0  0  4           0  0  0
    2.2841   -3.6162    0.7704 C   0  0  0  0  0  4           0  0  0
    0.3673    0.6230    4.0125 C   0  0  0  0  0  4           0  0  0
   -0.5982   -0.4824    4.4128 C   0  0  0  0  0  4           0  0  0
    1.5280    0.0000   -0.0000 C   0  0  0  0  0  4           0  0  0
  1  3  1  0     0  0
  1  4  1  0     0  0
  1 15  1  0     0  0
  2 16  1  0     0  0
  2 17  1  0     0  0
  3  5  2  0     0  0
  3  7  1  0     0  0
  4  6  2  0     0  0
  4  8  1  0     0  0
  5  9  1  0     0  0
  5 18  1  0     0  0
  6 10  1  0     0  0
  6 19  1  0     0  0
  7 11  2  0     0  0
  8 12  2  0     0  0
  9 13  2  0     0  0
 10 14  2  0     0  0
 11 13  1  0     0  0
 12 14  1  0     0  0
 15 20  1  0     0  0
 16 20  1  0     0  0
 18 19  1  0     0  0
M  END
> <standard_type>
pIC50

> <# Confs.>
25

> <canonical_smiles>
CNCCCN1C2=C(C=CC=C2)CCC3=C1C=CC=C3

> <standard_relation>
=

> <Publication_ID>
nan

> <predicted_activity_value>
nan

> <actual_activity_value>
-0.14301480025409513

> <Compound>
Desipramine

> <standard_units>
uM

> hash
17858186531061072819

$$$$
12
XXILIB    08252103503D 0   0.00000     0.00000

 20 22  0     1  0            999 V2000
   -0.5576    0.0000    1.3460 N   0  0  2  0  0  3           0  0  0
    1.7079    2.4717    0.0779 N   0  0  0  0  0  3           0  0  0
   -0.7767   -1.2979    1.8748 C   0  0  0  0  0  4           0  0  0
   -0.9293    1.2360    1.9400 C   0  0  0  0  0  4           0  0  0
   -0.3328   -1.6492    3.1601 C   0  0  0  0  0  4           0  0  0
   -0.9874    1.4570    3.3382 C   0  0  0  0  0  4           0  0  0
   -1.4496   -2.2779    1.1157 C   0  0  0  0  0  4           0  0  0
   -1.3201    2.3182    1.1088 C   0  0  0  0  0  4           0  0  0
   -0.5487   -2.9469    3.6535 C   0  0  0  0  0  4           0  0  0
   -1.4520    2.7013    3.8313 C   0  0  0  0  0  4           0  0  0
   -1.6644   -3.5638    1.6136 C   0  0  0  0  0  4           0  0  0
   -1.7574    3.5441    1.6156 C   0  0  0  0  0  4           0  0  0
   -1.2102   -3.8994    2.8826 C   0  0  0  0  0  4           0  0  0
   -1.8290    3.7350    2.9824 C   0  0  0  0  0  4           0  0  0
    0.0000    0.0000    0.0000 C   0  0  0  0  0  4           0  0  0
    2.1172    1.2206    0.7047 C   0  0  0  0  0  4           0  0  0
    2.2841    3.6162    0.7704 C   0  0  0  0  0  4           0  0  0
    0.3766   -0.6359    4.0114 C   0  0  0  0  0  4           0  0  0
   -0.5894    0.4678    4.4152 C   0  0  0  0  0  4           0  0  0
    1.5280   -0.0000    0.0000 C   0  0  0  0  0  4           0  0  0
  1  3  1  0     0  0
  1  4  1  0     0  0
  1 15  1  0     0  0
  2 16  1  0     0  0
  2 17  1  0     0  0
  3  5  2  0     0  0
  3  7  1  0     0  0
  4  6  2  0     0  0
  4  8  1  0     0  0
  5  9  1  0     0  0
  5 18  1  0     0  0
  6 10  1  0     0  0
  6 19  1  0     0  0
  7 11  2  0     0  0
  8 12  2  0     0  0
  9 13  2  0     0  0
 10 14  2  0     0  0
 11 13  1  0     0  0
 12 14  1  0     0  0
 15 20  1  0     0  0
 16 20  1  0     0  0
 18 19  1  0     0  0
M  END
> <standard_type>
pIC50

> <# Confs.>
25

> <canonical_smiles>
CNCCCN1C2=C(C=CC=C2)CCC3=C1C=CC=C3

> <standard_relation>
=

> <Publication_ID>
nan

> <predicted_activity_value>
nan

> <actual_activity_value>
-0.14301480025409513

> <Compound>
Desipramine

> <standard_units>
uM

> hash
17858186531061072819

$$$$
12
XXILIB    08252103503D 0   0.00000     0.00000

 20 22  0     1  0            999 V2000
   -0.5576    0.0000    1.3460 N   0  0  2  0  0  3           0  0  0
    1.7079    1.1684   -2.1794 N   0  0  0  0  0  3           0  0  0
   -0.1782    1.1231    2.1244 C   0  0  0  0  0  4           0  0  0
   -1.5042   -0.9970    1.7045 C   0  0  0  0  0  4           0  0  0
    0.3060    0.9728    3.4340 C   0  0  0  0  0  4           0  0  0
   -1.7304   -1.4315    3.0341 C   0  0  0  0  0  4           0  0  0
   -0.2790    2.4285    1.6003 C   0  0  0  0  0  4           0  0  0
   -2.3226   -1.5738    0.6984 C   0  0  0  0  0  4           0  0  0
    0.6824    2.1002    4.1826 C   0  0  0  0  0  4           0  0  0
   -2.7576   -2.3709    3.2974 C   0  0  0  0  0  4           0  0  0
    0.0951    3.5443    2.3503 C   0  0  0  0  0  4           0  0  0
   -3.3182   -2.5127    0.9779 C   0  0  0  0  0  4           0  0  0
    0.5783    3.3793    3.6421 C   0  0  0  0  0  4           0  0  0
   -3.5410   -2.9088    2.2832 C   0  0  0  0  0  4           0  0  0
    0.0000    0.0000    0.0000 C   0  0  0  0  0  4           0  0  0
    2.1172    0.0000   -1.4095 C   0  0  0  0  0  4           0  0  0
    2.1405    2.3990   -1.5314 C   0  0  0  0  0  4           0  0  0
    0.4230   -0.3980    4.0356 C   0  0  0  0  0  4           0  0  0
   -0.9617   -0.9859    4.2622 C   0  0  0  0  0  4           0  0  0
    1.5280   -0.0000    0.0000 C   0  0  0  0  0  4           0  0  0
  1  3  1  0     0  0
  1  4  1  0     0  0
  1 15  1  0     0  0
  2 16  1  0     0  0
  2 17  1  0     0  0
  3  5  2  0     0  0
  3  7  1  0     0  0
  4  6  2  0     0  0
  4  8  1  0     0  0
  5  9  1  0     0  0
  5 18  1  0     0  0
  6 10  1  0     0  0
  6 19  1  0     0  0
  7 11  2  0     0  0
  8 12  2  0     0  0
  9 13  2  0     0  0
 10 14  2  0     0  0
 11 13  1  0     0  0
 12 14  1  0     0  0
 15 20  1  0     0  0
 16 20  1  0     0  0
 18 19  1  0     0  0
M  END
> <standard_type>
pIC50

> <# Confs.>
25

> <canonical_smiles>
CNCCCN1C2=C(C=CC=C2)CCC3=C1C=CC=C3

> <standard_relation>
=

> <Publication_ID>
nan

> <predicted_activity_value>
nan

> <actual_activity_value>
-0.14301480025409513

> <Compound>
Desipramine

> <standard_units>
uM

> hash
17858186531061072819

$$$$
16
XXILIB    08252103503D 0   0.00000     0.00000

 24 28  0     1  0            999 V2000
    2.0678    0.0000    1.0040 O   0  0  0  0  0  2           0  0  0
   -4.0164    0.7624    6.0476 O   0  0  0  0  0  2           0  0  0
    0.0000   -0.0000    0.0000 O   0  0  0  0  0  2           0  0  0
    3.4473    0.0007   -2.9584 N   0  0  0  0  0  3           0  0  0
   -2.6566    1.5637    2.8194 N   0  0  2  0  0  3           0  0  0
    2.2339    0.0038   -3.6025 C   0  0  0  0  0  4           0  0  0
    3.2620   -0.0013   -1.6047 C   0  0  0  0  0  4           0  0  0
    1.2408    0.0012   -2.6177 C   0  0  0  0  0  4           0  0  0
    1.9047   -0.0006   -1.3427 C   0  0  0  0  0  4           0  0  0
    1.9503    0.0092   -4.9735 C   0  0  0  0  0  4           0  0  0
   -0.1075    0.0041   -3.0419 C   0  0  0  0  0  4           0  0  0
    0.6090    0.0110   -5.3603 C   0  0  0  0  0  4           0  0  0
   -0.4066    0.0084   -4.4099 C   0  0  0  0  0  4           0  0  0
    1.3649   -0.0000   -0.0000 C   0  0  0  0  0  4           0  0  0
   -3.4031    0.7665    4.9850 C   0  0  0  0  0  4           0  0  0
   -0.7041    0.0000    1.2579 C   0  0  2  0  0  4           0  0  0
   -3.0610    0.2698    2.2104 C   0  0  1  0  0  4           0  0  0
   -1.2473    1.4635    3.2802 C   0  0  2  0  0  4           0  0  0
   -3.5390    1.8794    3.9642 C   0  0  0  0  0  4           0  0  0
   -2.4456   -0.3342    4.5790 C   0  0  1  0  0  4           0  0  0
   -2.2059   -0.0000    0.9625 C   0  0  0  0  0  4           0  0  0
   -0.3243    1.2411    2.0718 C   0  0  0  0  0  4           0  0  0
   -2.9830   -0.8770    3.2504 C   0  0  0  0  0  4           0  0  0
   -1.0968    0.3586    4.3574 C   0  0  0  0  0  4           0  0  0
  1 14  2  0     0  0
  2 15  2  0     0  0
  3 14  1  0     0  0
  3 16  1  0     0  0
  4  6  1  0     0  0
  4  7  1  0     0  0
  5 17  1  0     0  0
  5 18  1  0     0  0
  5 19  1  0     0  0
  6  8  2  0     0  0
  6 10  1  0     0  0
  7  9  2  0     0  0
  8  9  1  0     0  0
  8 11  1  0     0  0
  9 14  1  0     0  0
 10 12  2  0     0  0
 11 13  2  0     0  0
 12 13  1  0     0  0
 15 19  1  0     0  0
 15 20  1  0     0  0
 16 21  1  0     0  0
 16 22  1  0     0  0
 17 21  1  0     0  0
 17 23  1  0     0  0
 18 22  1  0     0  0
 18 24  1  0     0  0
 20 23  1  0     0  0
 20 24  1  0     0  0
M  END
> <standard_type>
pIC50

> <# Confs.>
25

> <canonical_smiles>
O=C1C2C[C@@](C[C@H](OC(C3=CNC4=C3C=CC=C4)=O)C[C@]5([H])C2)([H])[N@]5C1

> <standard_relation>
=

> <Publication_ID>
nan

> <predicted_activity_value>
nan

> <actual_activity_value>
-0.7745169657285496

> <Compound>
Dolasetron

> <standard_units>
uM

> hash
10341232691232189393

$$$$
16
XXILIB    08252103503D 0   0.00000     0.00000

 24 28  0     1  0            999 V2000
    2.0678    0.0000    1.0040 O   0  0  0  0  0  2           0  0  0
   -4.0164    0.7624    6.0476 O   0  0  0  0  0  2           0  0  0
    0.0000   -0.0000    0.0000 O   0  0  0  0  0  2           0  0  0
    1.9097   -0.0037   -3.5765 N   0  0  0  0  0  3           0  0  0
   -2.6566    1.5637    2.8194 N   0  0  2  0  0  3           0  0  0
    3.2313   -0.0069   -3.2015 C   0  0  0  0  0  4           0  0  0
    1.1065   -0.0006   -2.4712 C   0  0  0  0  0  4           0  0  0
    3.2664   -0.0032   -1.8033 C   0  0  0  0  0  4           0  0  0
    1.9047   -0.0006   -1.3427 C   0  0  0  0  0  4           0  0  0
    4.3850   -0.0134   -3.9947 C   0  0  0  0  0  4           0  0  0
    4.5332   -0.0061   -1.1762 C   0  0  0  0  0  4           0  0  0
    5.6207   -0.0150   -3.3454 C   0  0  0  0  0  4           0  0  0
    5.6959   -0.0114   -1.9565 C   0  0  0  0  0  4           0  0  0
    1.3649    0.0000   -0.0000 C   0  0  0  0  0  4           0  0  0
   -3.4031    0.7665    4.9850 C   0  0  0  0  0  4           0  0  0
   -0.7041    0.0000    1.2579 C   0  0  2  0  0  4           0  0  0
   -3.0610    0.2698    2.2104 C   0  0  1  0  0  4           0  0  0
   -1.2473    1.4635    3.2802 C   0  0  2  0  0  4           0  0  0
   -3.5390    1.8794    3.9642 C   0  0  0  0  0  4           0  0  0
   -2.4456   -0.3342    4.5790 C   0  0  1  0  0  4           0  0  0
   -2.2059   -0.0000    0.9625 C   0  0  0  0  0  4           0  0  0
   -0.3243    1.2411    2.0718 C   0  0  0  0  0  4           0  0  0
   -2.9830   -0.8770    3.2504 C   0  0  0  0  0  4           0  0  0
   -1.0968    0.3586    4.3574 C   0  0  0  0  0  4           0  0  0
  1 14  2  0     0  0
  2 15  2  0     0  0
  3 14  1  0     0  0
  3 16  1  0     0  0
  4  6  1  0     0  0
  4  7  1  0     0  0
  5 17  1  0     0  0
  5 18  1  0     0  0
  5 19  1  0     0  0
  6  8  2  0     0  0
  6 10  1  0     0  0
  7  9  2  0     0  0
  8  9  1  0     0  0
  8 11  1  0     0  0
  9 14  1  0     0  0
 10 12  2  0     0  0
 11 13  2  0     0  0
 12 13  1  0     0  0
 15 19  1  0     0  0
 15 20  1  0     0  0
 16 21  1  0     0  0
 16 22  1  0     0  0
 17 21  1  0     0  0
 17 23  1  0     0  0
 18 22  1  0     0  0
 18 24  1  0     0  0
 20 23  1  0     0  0
 20 24  1  0     0  0
M  END
> <standard_type>
pIC50

> <# Confs.>
25

> <canonical_smiles>
O=C1C2C[C@@](C[C@H](OC(C3=CNC4=C3C=CC=C4)=O)C[C@]5([H])C2)([H])[N@]5C1

> <standard_relation>
=

> <Publication_ID>
nan

> <predicted_activity_value>
nan

> <actual_activity_value>
-0.7745169657285496

> <Compound>
Dolasetron

> <standard_units>
uM

> hash
10341232691232189393

$$$$
16
XXILIB    08252103503D 0   0.00000     0.00000

 24 28  0     1  0            999 V2000
    2.0678    0.0000    1.0040 O   0  0  0  0  0  2           0  0  0
   -3.8714   -0.8583    6.1287 O   0  0  0  0  0  2           0  0  0
    0.0000    0.0000    0.0000 O   0  0  0  0  0  2           0  0  0
    3.4473    0.0007   -2.9584 N   0  0  0  0  0  3           0  0  0
   -2.6064   -1.5969    2.8474 N   0  0  2  0  0  3           0  0  0
    2.2339    0.0038   -3.6025 C   0  0  0  0  0  4           0  0  0
    3.2620   -0.0013   -1.6047 C   0  0  0  0  0  4           0  0  0
    1.2408    0.0012   -2.6177 C   0  0  0  0  0  4           0  0  0
    1.9047   -0.0006   -1.3427 C   0  0  0  0  0  4           0  0  0
    1.9503    0.0092   -4.9735 C   0  0  0  0  0  4           0  0  0
   -0.1075    0.0041   -3.0419 C   0  0  0  0  0  4           0  0  0
    0.6090    0.0110   -5.3603 C   0  0  0  0  0  4           0  0  0
   -0.4066    0.0084   -4.4099 C   0  0  0  0  0  4           0  0  0
    1.3649   -0.0000   -0.0000 C   0  0  0  0  0  4           0  0  0
   -3.2824   -0.8464    5.0526 C   0  0  0  0  0  4           0  0  0
   -0.7041    0.0000    1.2579 C   0  0  2  0  0  4           0  0  0
   -1.1819   -1.5131    3.2623 C   0  0  1  0  0  4           0  0  0
   -3.0257   -0.2868    2.2848 C   0  0  2  0  0  4           0  0  0
   -3.4515   -1.9373    4.0133 C   0  0  0  0  0  4           0  0  0
   -2.3272    0.2558    4.6453 C   0  0  1  0  0  4           0  0  0
   -0.3018   -1.2598    2.0283 C   0  0  0  0  0  4           0  0  0
   -2.2163    0.0107    1.0128 C   0  0  0  0  0  4           0  0  0
   -0.9911   -0.4409    4.3653 C   0  0  0  0  0  4           0  0  0
   -2.9008    0.8350    3.3477 C   0  0  0  0  0  4           0  0  0
  1 14  2  0     0  0
  2 15  2  0     0  0
  3 14  1  0     0  0
  3 16  1  0     0  0
  4  6  1  0     0  0
  4  7  1  0     0  0
  5 17  1  0     0  0
  5 18  1  0     0  0
  5 19  1  0     0  0
  6  8  2  0     0  0
  6 10  1  0     0  0
  7  9  2  0     0  0
  8  9  1  0     0  0
  8 11  1  0     0  0
  9 14  1  0     0  0
 10 12  2  0     0  0
 11 13  2  0     0  0
 12 13  1  0     0  0
 15 19  1  0     0  0
 15 20  1  0     0  0
 16 21  1  0     0  0
 16 22  1  0     0  0
 17 21  1  0     0  0
 17 23  1  0     0  0
 18 22  1  0     0  0
 18 24  1  0     0  0
 20 23  1  0     0  0
 20 24  1  0     0  0
M  END
> <standard_type>
pIC50

> <# Confs.>
25

> <canonical_smiles>
O=C1C2C[C@@](C[C@H](OC(C3=CNC4=C3C=CC=C4)=O)C[C@]5([H])C2)([H])[N@]5C1

> <standard_relation>
=

> <Publication_ID>
nan

> <predicted_activity_value>
nan

> <actual_activity_value>
-0.7745169657285496

> <Compound>
Dolasetron

> <standard_units>
uM

> hash
10341232691232189393

$$$$
16
XXILIB    08252103503D 0   0.00000     0.00000

 24 28  0     1  0            999 V2000
    2.0678    0.0000    1.0040 O   0  0  0  0  0  2           0  0  0
   -3.8714   -0.8583    6.1287 O   0  0  0  0  0  2           0  0  0
    0.0000    0.0000    0.0000 O   0  0  0  0  0  2           0  0  0
    1.9097   -0.0037   -3.5765 N   0  0  0  0  0  3           0  0  0
   -2.6064   -1.5969    2.8474 N   0  0  2  0  0  3           0  0  0
    3.2313   -0.0069   -3.2015 C   0  0  0  0  0  4           0  0  0
    1.1065   -0.0006   -2.4712 C   0  0  0  0  0  4           0  0  0
    3.2664   -0.0032   -1.8033 C   0  0  0  0  0  4           0  0  0
    1.9047   -0.0006   -1.3427 C   0  0  0  0  0  4           0  0  0
    4.3850   -0.0134   -3.9947 C   0  0  0  0  0  4           0  0  0
    4.5332   -0.0061   -1.1762 C   0  0  0  0  0  4           0  0  0
    5.6207   -0.0150   -3.3454 C   0  0  0  0  0  4           0  0  0
    5.6959   -0.0114   -1.9565 C   0  0  0  0  0  4           0  0  0
    1.3649    0.0000   -0.0000 C   0  0  0  0  0  4           0  0  0
   -3.2824   -0.8464    5.0526 C   0  0  0  0  0  4           0  0  0
   -0.7041    0.0000    1.2579 C   0  0  2  0  0  4           0  0  0
   -1.1819   -1.5131    3.2623 C   0  0  1  0  0  4           0  0  0
   -3.0257   -0.2868    2.2848 C   0  0  2  0  0  4           0  0  0
   -3.4515   -1.9373    4.0133 C   0  0  0  0  0  4           0  0  0
   -2.3272    0.2558    4.6453 C   0  0  1  0  0  4           0  0  0
   -0.3018   -1.2598    2.0283 C   0  0  0  0  0  4           0  0  0
   -2.2163    0.0107    1.0128 C   0  0  0  0  0  4           0  0  0
   -0.9911   -0.4409    4.3653 C   0  0  0  0  0  4           0  0  0
   -2.9008    0.8350    3.3477 C   0  0  0  0  0  4           0  0  0
  1 14  2  0     0  0
  2 15  2  0     0  0
  3 14  1  0     0  0
  3 16  1  0     0  0
  4  6  1  0     0  0
  4  7  1  0     0  0
  5 17  1  0     0  0
  5 18  1  0     0  0
  5 19  1  0     0  0
  6  8  2  0     0  0
  6 10  1  0     0  0
  7  9  2  0     0  0
  8  9  1  0     0  0
  8 11  1  0     0  0
  9 14  1  0     0  0
 10 12  2  0     0  0
 11 13  2  0     0  0
 12 13  1  0     0  0
 15 19  1  0     0  0
 15 20  1  0     0  0
 16 21  1  0     0  0
 16 22  1  0     0  0
 17 21  1  0     0  0
 17 23  1  0     0  0
 18 22  1  0     0  0
 18 24  1  0     0  0
 20 23  1  0     0  0
 20 24  1  0     0  0
M  END
> <standard_type>
pIC50

> <# Confs.>
25

> <canonical_smiles>
O=C1C2C[C@@](C[C@H](OC(C3=CNC4=C3C=CC=C4)=O)C[C@]5([H])C2)([H])[N@]5C1

> <standard_relation>
=

> <Publication_ID>
nan

> <predicted_activity_value>
nan

> <actual_activity_value>
-0.7745169657285496

> <Compound>
Dolasetron

> <standard_units>
uM

> hash
10341232691232189393

$$$$
16
XXILIB    08252103503D 0   0.00000     0.00000

 24 28  0     1  0            999 V2000
    2.0678   -0.5020    0.8695 O   0  0  0  0  0  2           0  0  0
   -4.0164    0.7624    6.0476 O   0  0  0  0  0  2           0  0  0
    0.0000   -0.0000    0.0000 O   0  0  0  0  0  2           0  0  0
    3.3453    1.1412   -2.8043 N   0  0  0  0  0  3           0  0  0
   -2.6566    1.5637    2.8194 N   0  0  2  0  0  3           0  0  0
    2.3033    2.0228   -2.9599 C   0  0  0  0  0  4           0  0  0
    3.1173    0.3272   -1.7308 C   0  0  0  0  0  4           0  0  0
    1.3776    1.7549   -1.9462 C   0  0  0  0  0  4           0  0  0
    1.9047    0.6708   -1.1631 C   0  0  0  0  0  4           0  0  0
    2.1187    3.0279   -3.9169 C   0  0  0  0  0  4           0  0  0
    0.2059    2.5441   -1.8988 C   0  0  0  0  0  4           0  0  0
    0.9510    3.7892   -3.8437 C   0  0  0  0  0  4           0  0  0
    0.0070    3.5523   -2.8500 C   0  0  0  0  0  4           0  0  0
    1.3649    0.0000   -0.0000 C   0  0  0  0  0  4           0  0  0
   -3.4031    0.7665    4.9850 C   0  0  0  0  0  4           0  0  0
   -0.7041    0.0000    1.2579 C   0  0  2  0  0  4           0  0  0
   -3.0610    0.2698    2.2104 C   0  0  1  0  0  4           0  0  0
   -1.2473    1.4635    3.2802 C   0  0  2  0  0  4           0  0  0
   -3.5390    1.8794    3.9642 C   0  0  0  0  0  4           0  0  0
   -2.4456   -0.3342    4.5790 C   0  0  1  0  0  4           0  0  0
   -2.2059   -0.0000    0.9625 C   0  0  0  0  0  4           0  0  0
   -0.3243    1.2411    2.0718 C   0  0  0  0  0  4           0  0  0
   -2.9830   -0.8770    3.2504 C   0  0  0  0  0  4           0  0  0
   -1.0968    0.3586    4.3574 C   0  0  0  0  0  4           0  0  0
  1 14  2  0     0  0
  2 15  2  0     0  0
  3 14  1  0     0  0
  3 16  1  0     0  0
  4  6  1  0     0  0
  4  7  1  0     0  0
  5 17  1  0     0  0
  5 18  1  0     0  0
  5 19  1  0     0  0
  6  8  2  0     0  0
  6 10  1  0     0  0
  7  9  2  0     0  0
  8  9  1  0     0  0
  8 11  1  0     0  0
  9 14  1  0     0  0
 10 12  2  0     0  0
 11 13  2  0     0  0
 12 13  1  0     0  0
 15 19  1  0     0  0
 15 20  1  0     0  0
 16 21  1  0     0  0
 16 22  1  0     0  0
 17 21  1  0     0  0
 17 23  1  0     0  0
 18 22  1  0     0  0
 18 24  1  0     0  0
 20 23  1  0     0  0
 20 24  1  0     0  0
M  END
> <standard_type>
pIC50

> <# Confs.>
25

> <canonical_smiles>
O=C1C2C[C@@](C[C@H](OC(C3=CNC4=C3C=CC=C4)=O)C[C@]5([H])C2)([H])[N@]5C1

> <standard_relation>
=

> <Publication_ID>
nan

> <predicted_activity_value>
nan

> <actual_activity_value>
-0.7745169657285496

> <Compound>
Dolasetron

> <standard_units>
uM

> hash
10341232691232189393

$$$$
16
XXILIB    08252103503D 0   0.00000     0.00000

 24 28  0     1  0            999 V2000
    2.0678    0.5020    0.8695 O   0  0  0  0  0  2           0  0  0
   -3.8714   -0.8583    6.1287 O   0  0  0  0  0  2           0  0  0
    0.0000    0.0000    0.0000 O   0  0  0  0  0  2           0  0  0
    3.3433   -1.1410   -2.8057 N   0  0  0  0  0  3           0  0  0
   -2.6064   -1.5969    2.8474 N   0  0  2  0  0  3           0  0  0
    2.2982   -2.0183   -2.9645 C   0  0  0  0  0  4           0  0  0
    3.1178   -0.3295   -1.7299 C   0  0  0  0  0  4           0  0  0
    1.3754   -1.7536   -1.9474 C   0  0  0  0  0  4           0  0  0
    1.9047   -0.6719   -1.1625 C   0  0  0  0  0  4           0  0  0
    2.1080   -3.0163   -3.9279 C   0  0  0  0  0  4           0  0  0
    0.2008   -2.5386   -1.9030 C   0  0  0  0  0  4           0  0  0
    0.9385   -3.7750   -3.8563 C   0  0  0  0  0  4           0  0  0
   -0.0027   -3.5412   -2.8592 C   0  0  0  0  0  4           0  0  0
    1.3649    0.0000   -0.0000 C   0  0  0  0  0  4           0  0  0
   -3.2824   -0.8464    5.0526 C   0  0  0  0  0  4           0  0  0
   -0.7041    0.0000    1.2579 C   0  0  2  0  0  4           0  0  0
   -1.1819   -1.5131    3.2623 C   0  0  1  0  0  4           0  0  0
   -3.0257   -0.2868    2.2848 C   0  0  2  0  0  4           0  0  0
   -3.4515   -1.9373    4.0133 C   0  0  0  0  0  4           0  0  0
   -2.3272    0.2558    4.6453 C   0  0  1  0  0  4           0  0  0
   -0.3018   -1.2598    2.0283 C   0  0  0  0  0  4           0  0  0
   -2.2163    0.0107    1.0128 C   0  0  0  0  0  4           0  0  0
   -0.9911   -0.4409    4.3653 C   0  0  0  0  0  4           0  0  0
   -2.9008    0.8350    3.3477 C   0  0  0  0  0  4           0  0  0
  1 14  2  0     0  0
  2 15  2  0     0  0
  3 14  1  0     0  0
  3 16  1  0     0  0
  4  6  1  0     0  0
  4  7  1  0     0  0
  5 17  1  0     0  0
  5 18  1  0     0  0
  5 19  1  0     0  0
  6  8  2  0     0  0
  6 10  1  0     0  0
  7  9  2  0     0  0
  8  9  1  0     0  0
  8 11  1  0     0  0
  9 14  1  0     0  0
 10 12  2  0     0  0
 11 13  2  0     0  0
 12 13  1  0     0  0
 15 19  1  0     0  0
 15 20  1  0     0  0
 16 21  1  0     0  0
 16 22  1  0     0  0
 17 21  1  0     0  0
 17 23  1  0     0  0
 18 22  1  0     0  0
 18 24  1  0     0  0
 20 23  1  0     0  0
 20 24  1  0     0  0
M  END
> <standard_type>
pIC50

> <# Confs.>
25

> <canonical_smiles>
O=C1C2C[C@@](C[C@H](OC(C3=CNC4=C3C=CC=C4)=O)C[C@]5([H])C2)([H])[N@]5C1

> <standard_relation>
=

> <Publication_ID>
nan

> <predicted_activity_value>
nan

> <actual_activity_value>
-0.7745169657285496

> <Compound>
Dolasetron

> <standard_units>
uM

> hash
10341232691232189393

$$$$
16
XXILIB    08252103503D 0   0.00000     0.00000

 24 28  0     1  0            999 V2000
    2.0678   -0.5020    0.8695 O   0  0  0  0  0  2           0  0  0
   -4.0164    0.7624    6.0476 O   0  0  0  0  0  2           0  0  0
    0.0000   -0.0000    0.0000 O   0  0  0  0  0  2           0  0  0
    2.0118    2.1237   -2.8565 N   0  0  0  0  0  3           0  0  0
   -2.6566    1.5637    2.8194 N   0  0  2  0  0  3           0  0  0
    3.1619    1.3765   -2.9341 C   0  0  0  0  0  4           0  0  0
    1.2511    1.7091   -1.8000 C   0  0  0  0  0  4           0  0  0
    3.1296    0.4538   -1.8835 C   0  0  0  0  0  4           0  0  0
    1.9047    0.6708   -1.1631 C   0  0  0  0  0  4           0  0  0
    4.2166    1.4526   -3.8518 C   0  0  0  0  0  4           0  0  0
    4.2197   -0.4367   -1.7552 C   0  0  0  0  0  4           0  0  0
    5.2787    0.5602   -3.6976 C   0  0  0  0  0  4           0  0  0
    5.2823   -0.3717   -2.6649 C   0  0  0  0  0  4           0  0  0
    1.3649    0.0000   -0.0000 C   0  0  0  0  0  4           0  0  0
   -3.4031    0.7665    4.9850 C   0  0  0  0  0  4           0  0  0
   -0.7041    0.0000    1.2579 C   0  0  2  0  0  4           0  0  0
   -3.0610    0.2698    2.2104 C   0  0  1  0  0  4           0  0  0
   -1.2473    1.4635    3.2802 C   0  0  2  0  0  4           0  0  0
   -3.5390    1.8794    3.9642 C   0  0  0  0  0  4           0  0  0
   -2.4456   -0.3342    4.5790 C   0  0  1  0  0  4           0  0  0
   -2.2059   -0.0000    0.9625 C   0  0  0  0  0  4           0  0  0
   -0.3243    1.2411    2.0718 C   0  0  0  0  0  4           0  0  0
   -2.9830   -0.8770    3.2504 C   0  0  0  0  0  4           0  0  0
   -1.0968    0.3586    4.3574 C   0  0  0  0  0  4           0  0  0
  1 14  2  0     0  0
  2 15  2  0     0  0
  3 14  1  0     0  0
  3 16  1  0     0  0
  4  6  1  0     0  0
  4  7  1  0     0  0
  5 17  1  0     0  0
  5 18  1  0     0  0
  5 19  1  0     0  0
  6  8  2  0     0  0
  6 10  1  0     0  0
  7  9  2  0     0  0
  8  9  1  0     0  0
  8 11  1  0     0  0
  9 14  1  0     0  0
 10 12  2  0     0  0
 11 13  2  0     0  0
 12 13  1  0     0  0
 15 19  1  0     0  0
 15 20  1  0     0  0
 16 21  1  0     0  0
 16 22  1  0     0  0
 17 21  1  0     0  0
 17 23  1  0     0  0
 18 22  1  0     0  0
 18 24  1  0     0  0
 20 23  1  0     0  0
 20 24  1  0     0  0
M  END
> <standard_type>
pIC50

> <# Confs.>
25

> <canonical_smiles>
O=C1C2C[C@@](C[C@H](OC(C3=CNC4=C3C=CC=C4)=O)C[C@]5([H])C2)([H])[N@]5C1

> <standard_relation>
=

> <Publication_ID>
nan

> <predicted_activity_value>
nan

> <actual_activity_value>
-0.7745169657285496

> <Compound>
Dolasetron

> <standard_units>
uM

> hash
10341232691232189393

$$$$
16
XXILIB    08252103503D 0   0.00000     0.00000

 24 28  0     1  0            999 V2000
    2.0678   -0.5020    0.8695 O   0  0  0  0  0  2           0  0  0
   -4.0164    0.7624    6.0476 O   0  0  0  0  0  2           0  0  0
    0.0000   -0.0000    0.0000 O   0  0  0  0  0  2           0  0  0
    2.0137    1.4055   -3.2698 N   0  0  0  0  0  3           0  0  0
   -2.6566    1.5637    2.8194 N   0  0  2  0  0  3           0  0  0
    3.1670    1.8411   -2.6638 C   0  0  0  0  0  4           0  0  0
    1.2506    0.7030   -2.3805 C   0  0  0  0  0  4           0  0  0
    3.1318    1.3990   -1.3374 C   0  0  0  0  0  4           0  0  0
    1.9047    0.6708   -1.1631 C   0  0  0  0  0  4           0  0  0
    4.2273    2.5871   -3.1926 C   0  0  0  0  0  4           0  0  0
    4.2249    1.7286   -0.5040 C   0  0  0  0  0  4           0  0  0
    5.2913    2.8972   -2.3439 C   0  0  0  0  0  4           0  0  0
    5.2920    2.4751   -1.0186 C   0  0  0  0  0  4           0  0  0
    1.3649    0.0000    0.0000 C   0  0  0  0  0  4           0  0  0
   -3.4031    0.7665    4.9850 C   0  0  0  0  0  4           0  0  0
   -0.7041    0.0000    1.2579 C   0  0  2  0  0  4           0  0  0
   -3.0610    0.2698    2.2104 C   0  0  1  0  0  4           0  0  0
   -1.2473    1.4635    3.2802 C   0  0  2  0  0  4           0  0  0
   -3.5390    1.8794    3.9642 C   0  0  0  0  0  4           0  0  0
   -2.4456   -0.3342    4.5790 C   0  0  1  0  0  4           0  0  0
   -2.2059   -0.0000    0.9625 C   0  0  0  0  0  4           0  0  0
   -0.3243    1.2411    2.0718 C   0  0  0  0  0  4           0  0  0
   -2.9830   -0.8770    3.2504 C   0  0  0  0  0  4           0  0  0
   -1.0968    0.3586    4.3574 C   0  0  0  0  0  4           0  0  0
  1 14  2  0     0  0
  2 15  2  0     0  0
  3 14  1  0     0  0
  3 16  1  0     0  0
  4  6  1  0     0  0
  4  7  1  0     0  0
  5 17  1  0     0  0
  5 18  1  0     0  0
  5 19  1  0     0  0
  6  8  2  0     0  0
  6 10  1  0     0  0
  7  9  2  0     0  0
  8  9  1  0     0  0
  8 11  1  0     0  0
  9 14  1  0     0  0
 10 12  2  0     0  0
 11 13  2  0     0  0
 12 13  1  0     0  0
 15 19  1  0     0  0
 15 20  1  0     0  0
 16 21  1  0     0  0
 16 22  1  0     0  0
 17 21  1  0     0  0
 17 23  1  0     0  0
 18 22  1  0     0  0
 18 24  1  0     0  0
 20 23  1  0     0  0
 20 24  1  0     0  0
M  END
> <standard_type>
pIC50

> <# Confs.>
25

> <canonical_smiles>
O=C1C2C[C@@](C[C@H](OC(C3=CNC4=C3C=CC=C4)=O)C[C@]5([H])C2)([H])[N@]5C1

> <standard_relation>
=

> <Publication_ID>
nan

> <predicted_activity_value>
nan

> <actual_activity_value>
-0.7745169657285496

> <Compound>
Dolasetron

> <standard_units>
uM

> hash
10341232691232189393

$$$$
16
XXILIB    08252103503D 0   0.00000     0.00000

 24 28  0     1  0            999 V2000
    2.0678    0.5020    0.8695 O   0  0  0  0  0  2           0  0  0
   -3.8714   -0.8583    6.1287 O   0  0  0  0  0  2           0  0  0
    0.0000    0.0000    0.0000 O   0  0  0  0  0  2           0  0  0
    2.0137   -2.1290   -2.8521 N   0  0  0  0  0  3           0  0  0
   -2.6064   -1.5969    2.8474 N   0  0  2  0  0  3           0  0  0
    3.1670   -1.3864   -2.9263 C   0  0  0  0  0  4           0  0  0
    1.2506   -1.7101   -1.7990 C   0  0  0  0  0  4           0  0  0
    3.1318   -0.4587   -1.8802 C   0  0  0  0  0  4           0  0  0
    1.9047   -0.6719   -1.1625 C   0  0  0  0  0  4           0  0  0
    4.2273   -1.4713   -3.8368 C   0  0  0  0  0  4           0  0  0
    4.2249    0.4278   -1.7490 C   0  0  0  0  0  4           0  0  0
    5.2913   -0.5813   -3.6810 C   0  0  0  0  0  4           0  0  0
    5.2920    0.3555   -2.6528 C   0  0  0  0  0  4           0  0  0
    1.3649    0.0000   -0.0000 C   0  0  0  0  0  4           0  0  0
   -3.2824   -0.8464    5.0526 C   0  0  0  0  0  4           0  0  0
   -0.7041    0.0000    1.2579 C   0  0  2  0  0  4           0  0  0
   -1.1819   -1.5131    3.2623 C   0  0  1  0  0  4           0  0  0
   -3.0257   -0.2868    2.2848 C   0  0  2  0  0  4           0  0  0
   -3.4515   -1.9373    4.0133 C   0  0  0  0  0  4           0  0  0
   -2.3272    0.2558    4.6453 C   0  0  1  0  0  4           0  0  0
   -0.3018   -1.2598    2.0283 C   0  0  0  0  0  4           0  0  0
   -2.2163    0.0107    1.0128 C   0  0  0  0  0  4           0  0  0
   -0.9911   -0.4409    4.3653 C   0  0  0  0  0  4           0  0  0
   -2.9008    0.8350    3.3477 C   0  0  0  0  0  4           0  0  0
  1 14  2  0     0  0
  2 15  2  0     0  0
  3 14  1  0     0  0
  3 16  1  0     0  0
  4  6  1  0     0  0
  4  7  1  0     0  0
  5 17  1  0     0  0
  5 18  1  0     0  0
  5 19  1  0     0  0
  6  8  2  0     0  0
  6 10  1  0     0  0
  7  9  2  0     0  0
  8  9  1  0     0  0
  8 11  1  0     0  0
  9 14  1  0     0  0
 10 12  2  0     0  0
 11 13  2  0     0  0
 12 13  1  0     0  0
 15 19  1  0     0  0
 15 20  1  0     0  0
 16 21  1  0     0  0
 16 22  1  0     0  0
 17 21  1  0     0  0
 17 23  1  0     0  0
 18 22  1  0     0  0
 18 24  1  0     0  0
 20 23  1  0     0  0
 20 24  1  0     0  0
M  END
> <standard_type>
pIC50

> <# Confs.>
25

> <canonical_smiles>
O=C1C2C[C@@](C[C@H](OC(C3=CNC4=C3C=CC=C4)=O)C[C@]5([H])C2)([H])[N@]5C1

> <standard_relation>
=

> <Publication_ID>
nan

> <predicted_activity_value>
nan

> <actual_activity_value>
-0.7745169657285496

> <Compound>
Dolasetron

> <standard_units>
uM

> hash
10341232691232189393

$$$$
16
XXILIB    08252103503D 0   0.00000     0.00000

 24 28  0     1  0            999 V2000
    2.0678    0.5020    0.8695 O   0  0  0  0  0  2           0  0  0
   -3.8714   -0.8583    6.1287 O   0  0  0  0  0  2           0  0  0
    0.0000    0.0000    0.0000 O   0  0  0  0  0  2           0  0  0
    2.0118   -1.4120   -3.2674 N   0  0  0  0  0  3           0  0  0
   -2.6064   -1.5969    2.8474 N   0  0  2  0  0  3           0  0  0
    3.1619   -1.8527   -2.6591 C   0  0  0  0  0  4           0  0  0
    1.2511   -0.7043   -2.3801 C   0  0  0  0  0  4           0  0  0
    3.1296   -1.4042   -1.3348 C   0  0  0  0  0  4           0  0  0
    1.9047   -0.6719   -1.1625 C   0  0  0  0  0  4           0  0  0
    4.2166   -2.6095   -3.1839 C   0  0  0  0  0  4           0  0  0
    4.2197   -1.7384   -0.4994 C   0  0  0  0  0  4           0  0  0
    5.2787   -2.9221   -2.3339 C   0  0  0  0  0  4           0  0  0
    5.2823   -2.4937   -1.0106 C   0  0  0  0  0  4           0  0  0
    1.3649   -0.0000   -0.0000 C   0  0  0  0  0  4           0  0  0
   -3.2824   -0.8464    5.0526 C   0  0  0  0  0  4           0  0  0
   -0.7041    0.0000    1.2579 C   0  0  2  0  0  4           0  0  0
   -1.1819   -1.5131    3.2623 C   0  0  1  0  0  4           0  0  0
   -3.0257   -0.2868    2.2848 C   0  0  2  0  0  4           0  0  0
   -3.4515   -1.9373    4.0133 C   0  0  0  0  0  4           0  0  0
   -2.3272    0.2558    4.6453 C   0  0  1  0  0  4           0  0  0
   -0.3018   -1.2598    2.0283 C   0  0  0  0  0  4           0  0  0
   -2.2163    0.0107    1.0128 C   0  0  0  0  0  4           0  0  0
   -0.9911   -0.4409    4.3653 C   0  0  0  0  0  4           0  0  0
   -2.9008    0.8350    3.3477 C   0  0  0  0  0  4           0  0  0
  1 14  2  0     0  0
  2 15  2  0     0  0
  3 14  1  0     0  0
  3 16  1  0     0  0
  4  6  1  0     0  0
  4  7  1  0     0  0
  5 17  1  0     0  0
  5 18  1  0     0  0
  5 19  1  0     0  0
  6  8  2  0     0  0
  6 10  1  0     0  0
  7  9  2  0     0  0
  8  9  1  0     0  0
  8 11  1  0     0  0
  9 14  1  0     0  0
 10 12  2  0     0  0
 11 13  2  0     0  0
 12 13  1  0     0  0
 15 19  1  0     0  0
 15 20  1  0     0  0
 16 21  1  0     0  0
 16 22  1  0     0  0
 17 21  1  0     0  0
 17 23  1  0     0  0
 18 22  1  0     0  0
 18 24  1  0     0  0
 20 23  1  0     0  0
 20 24  1  0     0  0
M  END
> <standard_type>
pIC50

> <# Confs.>
25

> <canonical_smiles>
O=C1C2C[C@@](C[C@H](OC(C3=CNC4=C3C=CC=C4)=O)C[C@]5([H])C2)([H])[N@]5C1

> <standard_relation>
=

> <Publication_ID>
nan

> <predicted_activity_value>
nan

> <actual_activity_value>
-0.7745169657285496

> <Compound>
Dolasetron

> <standard_units>
uM

> hash
10341232691232189393

$$$$
16
XXILIB    08252103503D 0   0.00000     0.00000

 24 28  0     1  0            999 V2000
    2.0678    0.0000    1.0040 O   0  0  0  0  0  2           0  0  0
   -4.0164    0.7624    6.0476 O   0  0  0  0  0  2           0  0  0
    0.0000   -0.0000    0.0000 O   0  0  0  0  0  2           0  0  0
    3.0646   -0.7180   -3.1119 N   0  0  0  0  0  3           0  0  0
   -2.6566    1.5637    2.8194 N   0  0  2  0  0  3           0  0  0
    2.4876    0.4666   -3.5007 C   0  0  0  0  0  4           0  0  0
    2.7227   -1.0071   -1.8210 C   0  0  0  0  0  4           0  0  0
    1.7491    0.9454   -2.4138 C   0  0  0  0  0  4           0  0  0
    1.9047   -0.0006   -1.3427 C   0  0  0  0  0  4           0  0  0
    2.5682    1.1399   -4.7256 C   0  0  0  0  0  4           0  0  0
    1.0571    2.1674   -2.5747 C   0  0  0  0  0  4           0  0  0
    1.8728    2.3435   -4.8533 C   0  0  0  0  0  4           0  0  0
    1.1274    2.8515   -3.7945 C   0  0  0  0  0  4           0  0  0
    1.3649    0.0000   -0.0000 C   0  0  0  0  0  4           0  0  0
   -3.4031    0.7665    4.9850 C   0  0  0  0  0  4           0  0  0
   -0.7041    0.0000    1.2579 C   0  0  2  0  0  4           0  0  0
   -3.0610    0.2698    2.2104 C   0  0  1  0  0  4           0  0  0
   -1.2473    1.4635    3.2802 C   0  0  2  0  0  4           0  0  0
   -3.5390    1.8794    3.9642 C   0  0  0  0  0  4           0  0  0
   -2.4456   -0.3342    4.5790 C   0  0  1  0  0  4           0  0  0
   -2.2059   -0.0000    0.9625 C   0  0  0  0  0  4           0  0  0
   -0.3243    1.2411    2.0718 C   0  0  0  0  0  4           0  0  0
   -2.9830   -0.8770    3.2504 C   0  0  0  0  0  4           0  0  0
   -1.0968    0.3586    4.3574 C   0  0  0  0  0  4           0  0  0
  1 14  2  0     0  0
  2 15  2  0     0  0
  3 14  1  0     0  0
  3 16  1  0     0  0
  4  6  1  0     0  0
  4  7  1  0     0  0
  5 17  1  0     0  0
  5 18  1  0     0  0
  5 19  1  0     0  0
  6  8  2  0     0  0
  6 10  1  0     0  0
  7  9  2  0     0  0
  8  9  1  0     0  0
  8 11  1  0     0  0
  9 14  1  0     0  0
 10 12  2  0     0  0
 11 13  2  0     0  0
 12 13  1  0     0  0
 15 19  1  0     0  0
 15 20  1  0     0  0
 16 21  1  0     0  0
 16 22  1  0     0  0
 17 21  1  0     0  0
 17 23  1  0     0  0
 18 22  1  0     0  0
 18 24  1  0     0  0
 20 23  1  0     0  0
 20 24  1  0     0  0
M  END
> <standard_type>
pIC50

> <# Confs.>
25

> <canonical_smiles>
O=C1C2C[C@@](C[C@H](OC(C3=CNC4=C3C=CC=C4)=O)C[C@]5([H])C2)([H])[N@]5C1

> <standard_relation>
=

> <Publication_ID>
nan

> <predicted_activity_value>
nan

> <actual_activity_value>
-0.7745169657285496

> <Compound>
Dolasetron

> <standard_units>
uM

> hash
10341232691232189393

$$$$
16
XXILIB    08252103503D 0   0.00000     0.00000

 24 28  0     1  0            999 V2000
    2.0678   -0.0000    1.0040 O   0  0  0  0  0  2           0  0  0
   -4.0164    0.7624    6.0476 O   0  0  0  0  0  2           0  0  0
    0.0000   -0.0000    0.0000 O   0  0  0  0  0  2           0  0  0
    3.0613    0.7172   -3.1139 N   0  0  0  0  0  3           0  0  0
   -2.6566    1.5637    2.8194 N   0  0  2  0  0  3           0  0  0
    2.4789   -0.4644   -3.5038 C   0  0  0  0  0  4           0  0  0
    2.7235    1.0049   -1.8216 C   0  0  0  0  0  4           0  0  0
    1.7453   -0.9453   -2.4144 C   0  0  0  0  0  4           0  0  0
    1.9047   -0.0006   -1.3427 C   0  0  0  0  0  4           0  0  0
    2.5497   -1.1327   -4.7320 C   0  0  0  0  0  4           0  0  0
    1.0482   -2.1642   -2.5763 C   0  0  0  0  0  4           0  0  0
    1.8511   -2.3344   -4.8598 C   0  0  0  0  0  4           0  0  0
    1.1106   -2.8445   -3.7986 C   0  0  0  0  0  4           0  0  0
    1.3649    0.0000   -0.0000 C   0  0  0  0  0  4           0  0  0
   -3.4031    0.7665    4.9850 C   0  0  0  0  0  4           0  0  0
   -0.7041    0.0000    1.2579 C   0  0  2  0  0  4           0  0  0
   -3.0610    0.2698    2.2104 C   0  0  1  0  0  4           0  0  0
   -1.2473    1.4635    3.2802 C   0  0  2  0  0  4           0  0  0
   -3.5390    1.8794    3.9642 C   0  0  0  0  0  4           0  0  0
   -2.4456   -0.3342    4.5790 C   0  0  1  0  0  4           0  0  0
   -2.2059   -0.0000    0.9625 C   0  0  0  0  0  4           0  0  0
   -0.3243    1.2411    2.0718 C   0  0  0  0  0  4           0  0  0
   -2.9830   -0.8770    3.2504 C   0  0  0  0  0  4           0  0  0
   -1.0968    0.3586    4.3574 C   0  0  0  0  0  4           0  0  0
  1 14  2  0     0  0
  2 15  2  0     0  0
  3 14  1  0     0  0
  3 16  1  0     0  0
  4  6  1  0     0  0
  4  7  1  0     0  0
  5 17  1  0     0  0
  5 18  1  0     0  0
  5 19  1  0     0  0
  6  8  2  0     0  0
  6 10  1  0     0  0
  7  9  2  0     0  0
  8  9  1  0     0  0
  8 11  1  0     0  0
  9 14  1  0     0  0
 10 12  2  0     0  0
 11 13  2  0     0  0
 12 13  1  0     0  0
 15 19  1  0     0  0
 15 20  1  0     0  0
 16 21  1  0     0  0
 16 22  1  0     0  0
 17 21  1  0     0  0
 17 23  1  0     0  0
 18 22  1  0     0  0
 18 24  1  0     0  0
 20 23  1  0     0  0
 20 24  1  0     0  0
M  END
> <standard_type>
pIC50

> <# Confs.>
25

> <canonical_smiles>
O=C1C2C[C@@](C[C@H](OC(C3=CNC4=C3C=CC=C4)=O)C[C@]5([H])C2)([H])[N@]5C1

> <standard_relation>
=

> <Publication_ID>
nan

> <predicted_activity_value>
nan

> <actual_activity_value>
-0.7745169657285496

> <Compound>
Dolasetron

> <standard_units>
uM

> hash
10341232691232189393

$$$$
16
XXILIB    08252103503D 0   0.00000     0.00000

 24 28  0     1  0            999 V2000
    2.0678   -0.0000    1.0040 O   0  0  0  0  0  2           0  0  0
   -3.8714   -0.8583    6.1287 O   0  0  0  0  0  2           0  0  0
    0.0000    0.0000    0.0000 O   0  0  0  0  0  2           0  0  0
    3.0613    0.7172   -3.1139 N   0  0  0  0  0  3           0  0  0
   -2.6064   -1.5969    2.8474 N   0  0  2  0  0  3           0  0  0
    2.4789   -0.4644   -3.5038 C   0  0  0  0  0  4           0  0  0
    2.7235    1.0049   -1.8216 C   0  0  0  0  0  4           0  0  0
    1.7453   -0.9453   -2.4144 C   0  0  0  0  0  4           0  0  0
    1.9047   -0.0006   -1.3427 C   0  0  0  0  0  4           0  0  0
    2.5497   -1.1327   -4.7320 C   0  0  0  0  0  4           0  0  0
    1.0482   -2.1642   -2.5763 C   0  0  0  0  0  4           0  0  0
    1.8511   -2.3344   -4.8598 C   0  0  0  0  0  4           0  0  0
    1.1106   -2.8445   -3.7986 C   0  0  0  0  0  4           0  0  0
    1.3649    0.0000   -0.0000 C   0  0  0  0  0  4           0  0  0
   -3.2824   -0.8464    5.0526 C   0  0  0  0  0  4           0  0  0
   -0.7041    0.0000    1.2579 C   0  0  2  0  0  4           0  0  0
   -1.1819   -1.5131    3.2623 C   0  0  1  0  0  4           0  0  0
   -3.0257   -0.2868    2.2848 C   0  0  2  0  0  4           0  0  0
   -3.4515   -1.9373    4.0133 C   0  0  0  0  0  4           0  0  0
   -2.3272    0.2558    4.6453 C   0  0  1  0  0  4           0  0  0
   -0.3018   -1.2598    2.0283 C   0  0  0  0  0  4           0  0  0
   -2.2163    0.0107    1.0128 C   0  0  0  0  0  4           0  0  0
   -0.9911   -0.4409    4.3653 C   0  0  0  0  0  4           0  0  0
   -2.9008    0.8350    3.3477 C   0  0  0  0  0  4           0  0  0
  1 14  2  0     0  0
  2 15  2  0     0  0
  3 14  1  0     0  0
  3 16  1  0     0  0
  4  6  1  0     0  0
  4  7  1  0     0  0
  5 17  1  0     0  0
  5 18  1  0     0  0
  5 19  1  0     0  0
  6  8  2  0     0  0
  6 10  1  0     0  0
  7  9  2  0     0  0
  8  9  1  0     0  0
  8 11  1  0     0  0
  9 14  1  0     0  0
 10 12  2  0     0  0
 11 13  2  0     0  0
 12 13  1  0     0  0
 15 19  1  0     0  0
 15 20  1  0     0  0
 16 21  1  0     0  0
 16 22  1  0     0  0
 17 21  1  0     0  0
 17 23  1  0     0  0
 18 22  1  0     0  0
 18 24  1  0     0  0
 20 23  1  0     0  0
 20 24  1  0     0  0
M  END
> <standard_type>
pIC50

> <# Confs.>
25

> <canonical_smiles>
O=C1C2C[C@@](C[C@H](OC(C3=CNC4=C3C=CC=C4)=O)C[C@]5([H])C2)([H])[N@]5C1

> <standard_relation>
=

> <Publication_ID>
nan

> <predicted_activity_value>
nan

> <actual_activity_value>
-0.7745169657285496

> <Compound>
Dolasetron

> <standard_units>
uM

> hash
10341232691232189393

$$$$
16
XXILIB    08252103503D 0   0.00000     0.00000

 24 28  0     1  0            999 V2000
    2.0678    0.0000    1.0040 O   0  0  0  0  0  2           0  0  0
   -3.8714   -0.8583    6.1287 O   0  0  0  0  0  2           0  0  0
    0.0000    0.0000    0.0000 O   0  0  0  0  0  2           0  0  0
    3.0646   -0.7180   -3.1119 N   0  0  0  0  0  3           0  0  0
   -2.6064   -1.5969    2.8474 N   0  0  2  0  0  3           0  0  0
    2.4876    0.4666   -3.5007 C   0  0  0  0  0  4           0  0  0
    2.7227   -1.0071   -1.8210 C   0  0  0  0  0  4           0  0  0
    1.7491    0.9454   -2.4138 C   0  0  0  0  0  4           0  0  0
    1.9047   -0.0006   -1.3427 C   0  0  0  0  0  4           0  0  0
    2.5682    1.1399   -4.7256 C   0  0  0  0  0  4           0  0  0
    1.0571    2.1674   -2.5747 C   0  0  0  0  0  4           0  0  0
    1.8728    2.3435   -4.8533 C   0  0  0  0  0  4           0  0  0
    1.1274    2.8515   -3.7945 C   0  0  0  0  0  4           0  0  0
    1.3649    0.0000   -0.0000 C   0  0  0  0  0  4           0  0  0
   -3.2824   -0.8464    5.0526 C   0  0  0  0  0  4           0  0  0
   -0.7041    0.0000    1.2579 C   0  0  2  0  0  4           0  0  0
   -1.1819   -1.5131    3.2623 C   0  0  1  0  0  4           0  0  0
   -3.0257   -0.2868    2.2848 C   0  0  2  0  0  4           0  0  0
   -3.4515   -1.9373    4.0133 C   0  0  0  0  0  4           0  0  0
   -2.3272    0.2558    4.6453 C   0  0  1  0  0  4           0  0  0
   -0.3018   -1.2598    2.0283 C   0  0  0  0  0  4           0  0  0
   -2.2163    0.0107    1.0128 C   0  0  0  0  0  4           0  0  0
   -0.9911   -0.4409    4.3653 C   0  0  0  0  0  4           0  0  0
   -2.9008    0.8350    3.3477 C   0  0  0  0  0  4           0  0  0
  1 14  2  0     0  0
  2 15  2  0     0  0
  3 14  1  0     0  0
  3 16  1  0     0  0
  4  6  1  0     0  0
  4  7  1  0     0  0
  5 17  1  0     0  0
  5 18  1  0     0  0
  5 19  1  0     0  0
  6  8  2  0     0  0
  6 10  1  0     0  0
  7  9  2  0     0  0
  8  9  1  0     0  0
  8 11  1  0     0  0
  9 14  1  0     0  0
 10 12  2  0     0  0
 11 13  2  0     0  0
 12 13  1  0     0  0
 15 19  1  0     0  0
 15 20  1  0     0  0
 16 21  1  0     0  0
 16 22  1  0     0  0
 17 21  1  0     0  0
 17 23  1  0     0  0
 18 22  1  0     0  0
 18 24  1  0     0  0
 20 23  1  0     0  0
 20 24  1  0     0  0
M  END
> <standard_type>
pIC50

> <# Confs.>
25

> <canonical_smiles>
O=C1C2C[C@@](C[C@H](OC(C3=CNC4=C3C=CC=C4)=O)C[C@]5([H])C2)([H])[N@]5C1

> <standard_relation>
=

> <Publication_ID>
nan

> <predicted_activity_value>
nan

> <actual_activity_value>
-0.7745169657285496

> <Compound>
Dolasetron

> <standard_units>
uM

> hash
10341232691232189393

$$$$
16
XXILIB    08252103503D 0   0.00000     0.00000

 24 28  0     1  0            999 V2000
    2.0678    0.5020    0.8695 O   0  0  0  0  0  2           0  0  0
   -4.0164    0.7624    6.0476 O   0  0  0  0  0  2           0  0  0
    0.0000   -0.0000    0.0000 O   0  0  0  0  0  2           0  0  0
    3.3433   -1.1410   -2.8057 N   0  0  0  0  0  3           0  0  0
   -2.6566    1.5637    2.8194 N   0  0  2  0  0  3           0  0  0
    2.2982   -2.0183   -2.9645 C   0  0  0  0  0  4           0  0  0
    3.1178   -0.3295   -1.7299 C   0  0  0  0  0  4           0  0  0
    1.3754   -1.7536   -1.9474 C   0  0  0  0  0  4           0  0  0
    1.9047   -0.6719   -1.1625 C   0  0  0  0  0  4           0  0  0
    2.1080   -3.0163   -3.9279 C   0  0  0  0  0  4           0  0  0
    0.2008   -2.5386   -1.9030 C   0  0  0  0  0  4           0  0  0
    0.9385   -3.7750   -3.8563 C   0  0  0  0  0  4           0  0  0
   -0.0027   -3.5412   -2.8592 C   0  0  0  0  0  4           0  0  0
    1.3649    0.0000   -0.0000 C   0  0  0  0  0  4           0  0  0
   -3.4031    0.7665    4.9850 C   0  0  0  0  0  4           0  0  0
   -0.7041    0.0000    1.2579 C   0  0  2  0  0  4           0  0  0
   -3.0610    0.2698    2.2104 C   0  0  1  0  0  4           0  0  0
   -1.2473    1.4635    3.2802 C   0  0  2  0  0  4           0  0  0
   -3.5390    1.8794    3.9642 C   0  0  0  0  0  4           0  0  0
   -2.4456   -0.3342    4.5790 C   0  0  1  0  0  4           0  0  0
   -2.2059   -0.0000    0.9625 C   0  0  0  0  0  4           0  0  0
   -0.3243    1.2411    2.0718 C   0  0  0  0  0  4           0  0  0
   -2.9830   -0.8770    3.2504 C   0  0  0  0  0  4           0  0  0
   -1.0968    0.3586    4.3574 C   0  0  0  0  0  4           0  0  0
  1 14  2  0     0  0
  2 15  2  0     0  0
  3 14  1  0     0  0
  3 16  1  0     0  0
  4  6  1  0     0  0
  4  7  1  0     0  0
  5 17  1  0     0  0
  5 18  1  0     0  0
  5 19  1  0     0  0
  6  8  2  0     0  0
  6 10  1  0     0  0
  7  9  2  0     0  0
  8  9  1  0     0  0
  8 11  1  0     0  0
  9 14  1  0     0  0
 10 12  2  0     0  0
 11 13  2  0     0  0
 12 13  1  0     0  0
 15 19  1  0     0  0
 15 20  1  0     0  0
 16 21  1  0     0  0
 16 22  1  0     0  0
 17 21  1  0     0  0
 17 23  1  0     0  0
 18 22  1  0     0  0
 18 24  1  0     0  0
 20 23  1  0     0  0
 20 24  1  0     0  0
M  END
> <standard_type>
pIC50

> <# Confs.>
25

> <canonical_smiles>
O=C1C2C[C@@](C[C@H](OC(C3=CNC4=C3C=CC=C4)=O)C[C@]5([H])C2)([H])[N@]5C1

> <standard_relation>
=

> <Publication_ID>
nan

> <predicted_activity_value>
nan

> <actual_activity_value>
-0.7745169657285496

> <Compound>
Dolasetron

> <standard_units>
uM

> hash
10341232691232189393

$$$$
16
XXILIB    08252103503D 0   0.00000     0.00000

 24 28  0     1  0            999 V2000
    2.0678    0.5020    0.8695 O   0  0  0  0  0  2           0  0  0
   -4.0164    0.7624    6.0476 O   0  0  0  0  0  2           0  0  0
    0.0000   -0.0000    0.0000 O   0  0  0  0  0  2           0  0  0
    2.0118   -1.4120   -3.2674 N   0  0  0  0  0  3           0  0  0
   -2.6566    1.5637    2.8194 N   0  0  2  0  0  3           0  0  0
    3.1619   -1.8527   -2.6591 C   0  0  0  0  0  4           0  0  0
    1.2511   -0.7043   -2.3801 C   0  0  0  0  0  4           0  0  0
    3.1296   -1.4042   -1.3348 C   0  0  0  0  0  4           0  0  0
    1.9047   -0.6719   -1.1625 C   0  0  0  0  0  4           0  0  0
    4.2166   -2.6095   -3.1839 C   0  0  0  0  0  4           0  0  0
    4.2197   -1.7384   -0.4994 C   0  0  0  0  0  4           0  0  0
    5.2787   -2.9221   -2.3339 C   0  0  0  0  0  4           0  0  0
    5.2823   -2.4937   -1.0106 C   0  0  0  0  0  4           0  0  0
    1.3649   -0.0000   -0.0000 C   0  0  0  0  0  4           0  0  0
   -3.4031    0.7665    4.9850 C   0  0  0  0  0  4           0  0  0
   -0.7041    0.0000    1.2579 C   0  0  2  0  0  4           0  0  0
   -3.0610    0.2698    2.2104 C   0  0  1  0  0  4           0  0  0
   -1.2473    1.4635    3.2802 C   0  0  2  0  0  4           0  0  0
   -3.5390    1.8794    3.9642 C   0  0  0  0  0  4           0  0  0
   -2.4456   -0.3342    4.5790 C   0  0  1  0  0  4           0  0  0
   -2.2059   -0.0000    0.9625 C   0  0  0  0  0  4           0  0  0
   -0.3243    1.2411    2.0718 C   0  0  0  0  0  4           0  0  0
   -2.9830   -0.8770    3.2504 C   0  0  0  0  0  4           0  0  0
   -1.0968    0.3586    4.3574 C   0  0  0  0  0  4           0  0  0
  1 14  2  0     0  0
  2 15  2  0     0  0
  3 14  1  0     0  0
  3 16  1  0     0  0
  4  6  1  0     0  0
  4  7  1  0     0  0
  5 17  1  0     0  0
  5 18  1  0     0  0
  5 19  1  0     0  0
  6  8  2  0     0  0
  6 10  1  0     0  0
  7  9  2  0     0  0
  8  9  1  0     0  0
  8 11  1  0     0  0
  9 14  1  0     0  0
 10 12  2  0     0  0
 11 13  2  0     0  0
 12 13  1  0     0  0
 15 19  1  0     0  0
 15 20  1  0     0  0
 16 21  1  0     0  0
 16 22  1  0     0  0
 17 21  1  0     0  0
 17 23  1  0     0  0
 18 22  1  0     0  0
 18 24  1  0     0  0
 20 23  1  0     0  0
 20 24  1  0     0  0
M  END
> <standard_type>
pIC50

> <# Confs.>
25

> <canonical_smiles>
O=C1C2C[C@@](C[C@H](OC(C3=CNC4=C3C=CC=C4)=O)C[C@]5([H])C2)([H])[N@]5C1

> <standard_relation>
=

> <Publication_ID>
nan

> <predicted_activity_value>
nan

> <actual_activity_value>
-0.7745169657285496

> <Compound>
Dolasetron

> <standard_units>
uM

> hash
10341232691232189393

$$$$
16
XXILIB    08252103503D 0   0.00000     0.00000

 24 28  0     1  0            999 V2000
    2.0678    0.5020    0.8695 O   0  0  0  0  0  2           0  0  0
   -4.0164    0.7624    6.0476 O   0  0  0  0  0  2           0  0  0
    0.0000   -0.0000    0.0000 O   0  0  0  0  0  2           0  0  0
    2.0137   -2.1290   -2.8521 N   0  0  0  0  0  3           0  0  0
   -2.6566    1.5637    2.8194 N   0  0  2  0  0  3           0  0  0
    3.1670   -1.3864   -2.9263 C   0  0  0  0  0  4           0  0  0
    1.2506   -1.7101   -1.7990 C   0  0  0  0  0  4           0  0  0
    3.1318   -0.4587   -1.8802 C   0  0  0  0  0  4           0  0  0
    1.9047   -0.6719   -1.1625 C   0  0  0  0  0  4           0  0  0
    4.2273   -1.4713   -3.8368 C   0  0  0  0  0  4           0  0  0
    4.2249    0.4278   -1.7490 C   0  0  0  0  0  4           0  0  0
    5.2913   -0.5813   -3.6810 C   0  0  0  0  0  4           0  0  0
    5.2920    0.3555   -2.6528 C   0  0  0  0  0  4           0  0  0
    1.3649    0.0000   -0.0000 C   0  0  0  0  0  4           0  0  0
   -3.4031    0.7665    4.9850 C   0  0  0  0  0  4           0  0  0
   -0.7041    0.0000    1.2579 C   0  0  2  0  0  4           0  0  0
   -3.0610    0.2698    2.2104 C   0  0  1  0  0  4           0  0  0
   -1.2473    1.4635    3.2802 C   0  0  2  0  0  4           0  0  0
   -3.5390    1.8794    3.9642 C   0  0  0  0  0  4           0  0  0
   -2.4456   -0.3342    4.5790 C   0  0  1  0  0  4           0  0  0
   -2.2059   -0.0000    0.9625 C   0  0  0  0  0  4           0  0  0
   -0.3243    1.2411    2.0718 C   0  0  0  0  0  4           0  0  0
   -2.9830   -0.8770    3.2504 C   0  0  0  0  0  4           0  0  0
   -1.0968    0.3586    4.3574 C   0  0  0  0  0  4           0  0  0
  1 14  2  0     0  0
  2 15  2  0     0  0
  3 14  1  0     0  0
  3 16  1  0     0  0
  4  6  1  0     0  0
  4  7  1  0     0  0
  5 17  1  0     0  0
  5 18  1  0     0  0
  5 19  1  0     0  0
  6  8  2  0     0  0
  6 10  1  0     0  0
  7  9  2  0     0  0
  8  9  1  0     0  0
  8 11  1  0     0  0
  9 14  1  0     0  0
 10 12  2  0     0  0
 11 13  2  0     0  0
 12 13  1  0     0  0
 15 19  1  0     0  0
 15 20  1  0     0  0
 16 21  1  0     0  0
 16 22  1  0     0  0
 17 21  1  0     0  0
 17 23  1  0     0  0
 18 22  1  0     0  0
 18 24  1  0     0  0
 20 23  1  0     0  0
 20 24  1  0     0  0
M  END
> <standard_type>
pIC50

> <# Confs.>
25

> <canonical_smiles>
O=C1C2C[C@@](C[C@H](OC(C3=CNC4=C3C=CC=C4)=O)C[C@]5([H])C2)([H])[N@]5C1

> <standard_relation>
=

> <Publication_ID>
nan

> <predicted_activity_value>
nan

> <actual_activity_value>
-0.7745169657285496

> <Compound>
Dolasetron

> <standard_units>
uM

> hash
10341232691232189393

$$$$
16
XXILIB    08252103503D 0   0.00000     0.00000

 24 28  0     1  0            999 V2000
    2.0678    0.0000    1.0040 O   0  0  0  0  0  2           0  0  0
   -2.7192    0.0959    6.7737 O   0  0  0  0  0  2           0  0  0
    0.0000    0.0000    0.0000 O   0  0  0  0  0  2           0  0  0
    3.4473    0.0007   -2.9584 N   0  0  0  0  0  3           0  0  0
   -0.2431    0.0332    4.1703 N   0  0  2  0  0  3           0  0  0
    2.2339    0.0038   -3.6025 C   0  0  0  0  0  4           0  0  0
    3.2620   -0.0013   -1.6047 C   0  0  0  0  0  4           0  0  0
    1.2408    0.0012   -2.6177 C   0  0  0  0  0  4           0  0  0
    1.9047   -0.0006   -1.3427 C   0  0  0  0  0  4           0  0  0
    1.9503    0.0092   -4.9735 C   0  0  0  0  0  4           0  0  0
   -0.1075    0.0041   -3.0419 C   0  0  0  0  0  4           0  0  0
    0.6090    0.0110   -5.3603 C   0  0  0  0  0  4           0  0  0
   -0.4066    0.0084   -4.4099 C   0  0  0  0  0  4           0  0  0
    1.3649   -0.0000   -0.0000 C   0  0  0  0  0  4           0  0  0
   -2.1239    0.0799    5.7010 C   0  0  0  0  0  4           0  0  0
   -0.7041   -0.0000    1.2579 C   0  0  2  0  0  4           0  0  0
   -0.7741    1.2433    3.4905 C   0  0  1  0  0  4           0  0  0
   -0.8138   -1.1767    3.5228 C   0  0  2  0  0  4           0  0  0
   -0.6110    0.0579    5.6032 C   0  0  0  0  0  4           0  0  0
   -2.8323    0.0784    4.3626 C   0  0  1  0  0  4           0  0  0
   -0.3018    1.2598    2.0283 C   0  0  0  0  0  4           0  0  0
   -0.3405   -1.2518    2.0627 C   0  0  0  0  0  4           0  0  0
   -2.3167    1.3179    3.6233 C   0  0  0  0  0  4           0  0  0
   -2.3588   -1.1936    3.6510 C   0  0  0  0  0  4           0  0  0
  1 14  2  0     0  0
  2 15  2  0     0  0
  3 14  1  0     0  0
  3 16  1  0     0  0
  4  6  1  0     0  0
  4  7  1  0     0  0
  5 17  1  0     0  0
  5 18  1  0     0  0
  5 19  1  0     0  0
  6  8  2  0     0  0
  6 10  1  0     0  0
  7  9  2  0     0  0
  8  9  1  0     0  0
  8 11  1  0     0  0
  9 14  1  0     0  0
 10 12  2  0     0  0
 11 13  2  0     0  0
 12 13  1  0     0  0
 15 19  1  0     0  0
 15 20  1  0     0  0
 16 21  1  0     0  0
 16 22  1  0     0  0
 17 21  1  0     0  0
 17 23  1  0     0  0
 18 22  1  0     0  0
 18 24  1  0     0  0
 20 23  1  0     0  0
 20 24  1  0     0  0
M  END
> <standard_type>
pIC50

> <# Confs.>
25

> <canonical_smiles>
O=C1C2C[C@@](C[C@H](OC(C3=CNC4=C3C=CC=C4)=O)C[C@]5([H])C2)([H])[N@]5C1

> <standard_relation>
=

> <Publication_ID>
nan

> <predicted_activity_value>
nan

> <actual_activity_value>
-0.7745169657285496

> <Compound>
Dolasetron

> <standard_units>
uM

> hash
10341232691232189393

$$$$
16
XXILIB    08252103503D 0   0.00000     0.00000

 24 28  0     1  0            999 V2000
    2.0678    0.0000    1.0040 O   0  0  0  0  0  2           0  0  0
   -2.7192    0.0959    6.7737 O   0  0  0  0  0  2           0  0  0
    0.0000    0.0000    0.0000 O   0  0  0  0  0  2           0  0  0
    1.9097   -0.0037   -3.5765 N   0  0  0  0  0  3           0  0  0
   -0.2431    0.0332    4.1703 N   0  0  2  0  0  3           0  0  0
    3.2313   -0.0069   -3.2015 C   0  0  0  0  0  4           0  0  0
    1.1065   -0.0006   -2.4712 C   0  0  0  0  0  4           0  0  0
    3.2664   -0.0032   -1.8033 C   0  0  0  0  0  4           0  0  0
    1.9047   -0.0006   -1.3427 C   0  0  0  0  0  4           0  0  0
    4.3850   -0.0134   -3.9947 C   0  0  0  0  0  4           0  0  0
    4.5332   -0.0061   -1.1762 C   0  0  0  0  0  4           0  0  0
    5.6207   -0.0150   -3.3454 C   0  0  0  0  0  4           0  0  0
    5.6959   -0.0114   -1.9565 C   0  0  0  0  0  4           0  0  0
    1.3649    0.0000   -0.0000 C   0  0  0  0  0  4           0  0  0
   -2.1239    0.0799    5.7010 C   0  0  0  0  0  4           0  0  0
   -0.7041   -0.0000    1.2579 C   0  0  2  0  0  4           0  0  0
   -0.7741    1.2433    3.4905 C   0  0  1  0  0  4           0  0  0
   -0.8138   -1.1767    3.5228 C   0  0  2  0  0  4           0  0  0
   -0.6110    0.0579    5.6032 C   0  0  0  0  0  4           0  0  0
   -2.8323    0.0784    4.3626 C   0  0  1  0  0  4           0  0  0
   -0.3018    1.2598    2.0283 C   0  0  0  0  0  4           0  0  0
   -0.3405   -1.2518    2.0627 C   0  0  0  0  0  4           0  0  0
   -2.3167    1.3179    3.6233 C   0  0  0  0  0  4           0  0  0
   -2.3588   -1.1936    3.6510 C   0  0  0  0  0  4           0  0  0
  1 14  2  0     0  0
  2 15  2  0     0  0
  3 14  1  0     0  0
  3 16  1  0     0  0
  4  6  1  0     0  0
  4  7  1  0     0  0
  5 17  1  0     0  0
  5 18  1  0     0  0
  5 19  1  0     0  0
  6  8  2  0     0  0
  6 10  1  0     0  0
  7  9  2  0     0  0
  8  9  1  0     0  0
  8 11  1  0     0  0
  9 14  1  0     0  0
 10 12  2  0     0  0
 11 13  2  0     0  0
 12 13  1  0     0  0
 15 19  1  0     0  0
 15 20  1  0     0  0
 16 21  1  0     0  0
 16 22  1  0     0  0
 17 21  1  0     0  0
 17 23  1  0     0  0
 18 22  1  0     0  0
 18 24  1  0     0  0
 20 23  1  0     0  0
 20 24  1  0     0  0
M  END
> <standard_type>
pIC50

> <# Confs.>
25

> <canonical_smiles>
O=C1C2C[C@@](C[C@H](OC(C3=CNC4=C3C=CC=C4)=O)C[C@]5([H])C2)([H])[N@]5C1

> <standard_relation>
=

> <Publication_ID>
nan

> <predicted_activity_value>
nan

> <actual_activity_value>
-0.7745169657285496

> <Compound>
Dolasetron

> <standard_units>
uM

> hash
10341232691232189393

$$$$
16
XXILIB    08252103503D 0   0.00000     0.00000

 24 28  0     1  0            999 V2000
    2.0678   -0.8695    0.5020 O   0  0  0  0  0  2           0  0  0
   -4.0164    0.7624    6.0476 O   0  0  0  0  0  2           0  0  0
    0.0000   -0.0000    0.0000 O   0  0  0  0  0  2           0  0  0
    3.4473    2.5624   -1.4786 N   0  0  0  0  0  3           0  0  0
   -2.6566    1.5637    2.8194 N   0  0  2  0  0  3           0  0  0
    2.2339    3.1217   -1.7979 C   0  0  0  0  0  4           0  0  0
    3.2620    1.3891   -0.8034 C   0  0  0  0  0  4           0  0  0
    1.2408    2.2676   -1.3078 C   0  0  0  0  0  4           0  0  0
    1.9047    1.1625   -0.6719 C   0  0  0  0  0  4           0  0  0
    1.9503    4.3118   -2.4788 C   0  0  0  0  0  4           0  0  0
   -0.1075    2.6364   -1.5174 C   0  0  0  0  0  4           0  0  0
    0.6090    4.6476   -2.6706 C   0  0  0  0  0  4           0  0  0
   -0.4066    3.8233   -2.1976 C   0  0  0  0  0  4           0  0  0
    1.3649    0.0000   -0.0000 C   0  0  0  0  0  4           0  0  0
   -3.4031    0.7665    4.9850 C   0  0  0  0  0  4           0  0  0
   -0.7041    0.0000    1.2579 C   0  0  2  0  0  4           0  0  0
   -3.0610    0.2698    2.2104 C   0  0  1  0  0  4           0  0  0
   -1.2473    1.4635    3.2802 C   0  0  2  0  0  4           0  0  0
   -3.5390    1.8794    3.9642 C   0  0  0  0  0  4           0  0  0
   -2.4456   -0.3342    4.5790 C   0  0  1  0  0  4           0  0  0
   -2.2059   -0.0000    0.9625 C   0  0  0  0  0  4           0  0  0
   -0.3243    1.2411    2.0718 C   0  0  0  0  0  4           0  0  0
   -2.9830   -0.8770    3.2504 C   0  0  0  0  0  4           0  0  0
   -1.0968    0.3586    4.3574 C   0  0  0  0  0  4           0  0  0
  1 14  2  0     0  0
  2 15  2  0     0  0
  3 14  1  0     0  0
  3 16  1  0     0  0
  4  6  1  0     0  0
  4  7  1  0     0  0
  5 17  1  0     0  0
  5 18  1  0     0  0
  5 19  1  0     0  0
  6  8  2  0     0  0
  6 10  1  0     0  0
  7  9  2  0     0  0
  8  9  1  0     0  0
  8 11  1  0     0  0
  9 14  1  0     0  0
 10 12  2  0     0  0
 11 13  2  0     0  0
 12 13  1  0     0  0
 15 19  1  0     0  0
 15 20  1  0     0  0
 16 21  1  0     0  0
 16 22  1  0     0  0
 17 21  1  0     0  0
 17 23  1  0     0  0
 18 22  1  0     0  0
 18 24  1  0     0  0
 20 23  1  0     0  0
 20 24  1  0     0  0
M  END
> <standard_type>
pIC50

> <# Confs.>
25

> <canonical_smiles>
O=C1C2C[C@@](C[C@H](OC(C3=CNC4=C3C=CC=C4)=O)C[C@]5([H])C2)([H])[N@]5C1

> <standard_relation>
=

> <Publication_ID>
nan

> <predicted_activity_value>
nan

> <actual_activity_value>
-0.7745169657285496

> <Compound>
Dolasetron

> <standard_units>
uM

> hash
10341232691232189393

$$$$
16
XXILIB    08252103503D 0   0.00000     0.00000

 24 28  0     1  0            999 V2000
    2.0678   -0.5020    0.8695 O   0  0  0  0  0  2           0  0  0
   -3.8714   -0.8583    6.1287 O   0  0  0  0  0  2           0  0  0
    0.0000    0.0000    0.0000 O   0  0  0  0  0  2           0  0  0
    3.3453    1.1412   -2.8043 N   0  0  0  0  0  3           0  0  0
   -2.6064   -1.5969    2.8474 N   0  0  2  0  0  3           0  0  0
    2.3033    2.0228   -2.9599 C   0  0  0  0  0  4           0  0  0
    3.1173    0.3272   -1.7308 C   0  0  0  0  0  4           0  0  0
    1.3776    1.7549   -1.9462 C   0  0  0  0  0  4           0  0  0
    1.9047    0.6708   -1.1631 C   0  0  0  0  0  4           0  0  0
    2.1187    3.0279   -3.9169 C   0  0  0  0  0  4           0  0  0
    0.2059    2.5441   -1.8988 C   0  0  0  0  0  4           0  0  0
    0.9510    3.7892   -3.8437 C   0  0  0  0  0  4           0  0  0
    0.0070    3.5523   -2.8500 C   0  0  0  0  0  4           0  0  0
    1.3649    0.0000   -0.0000 C   0  0  0  0  0  4           0  0  0
   -3.2824   -0.8464    5.0526 C   0  0  0  0  0  4           0  0  0
   -0.7041    0.0000    1.2579 C   0  0  2  0  0  4           0  0  0
   -1.1819   -1.5131    3.2623 C   0  0  1  0  0  4           0  0  0
   -3.0257   -0.2868    2.2848 C   0  0  2  0  0  4           0  0  0
   -3.4515   -1.9373    4.0133 C   0  0  0  0  0  4           0  0  0
   -2.3272    0.2558    4.6453 C   0  0  1  0  0  4           0  0  0
   -0.3018   -1.2598    2.0283 C   0  0  0  0  0  4           0  0  0
   -2.2163    0.0107    1.0128 C   0  0  0  0  0  4           0  0  0
   -0.9911   -0.4409    4.3653 C   0  0  0  0  0  4           0  0  0
   -2.9008    0.8350    3.3477 C   0  0  0  0  0  4           0  0  0
  1 14  2  0     0  0
  2 15  2  0     0  0
  3 14  1  0     0  0
  3 16  1  0     0  0
  4  6  1  0     0  0
  4  7  1  0     0  0
  5 17  1  0     0  0
  5 18  1  0     0  0
  5 19  1  0     0  0
  6  8  2  0     0  0
  6 10  1  0     0  0
  7  9  2  0     0  0
  8  9  1  0     0  0
  8 11  1  0     0  0
  9 14  1  0     0  0
 10 12  2  0     0  0
 11 13  2  0     0  0
 12 13  1  0     0  0
 15 19  1  0     0  0
 15 20  1  0     0  0
 16 21  1  0     0  0
 16 22  1  0     0  0
 17 21  1  0     0  0
 17 23  1  0     0  0
 18 22  1  0     0  0
 18 24  1  0     0  0
 20 23  1  0     0  0
 20 24  1  0     0  0
M  END
> <standard_type>
pIC50

> <# Confs.>
25

> <canonical_smiles>
O=C1C2C[C@@](C[C@H](OC(C3=CNC4=C3C=CC=C4)=O)C[C@]5([H])C2)([H])[N@]5C1

> <standard_relation>
=

> <Publication_ID>
nan

> <predicted_activity_value>
nan

> <actual_activity_value>
-0.7745169657285496

> <Compound>
Dolasetron

> <standard_units>
uM

> hash
10341232691232189393

$$$$
16
XXILIB    08252103503D 0   0.00000     0.00000

 24 28  0     1  0            999 V2000
    2.0678   -0.8695    0.5020 O   0  0  0  0  0  2           0  0  0
   -4.0164    0.7624    6.0476 O   0  0  0  0  0  2           0  0  0
    0.0000   -0.0000    0.0000 O   0  0  0  0  0  2           0  0  0
    1.9097    3.0955   -1.7915 N   0  0  0  0  0  3           0  0  0
   -2.6566    1.5637    2.8194 N   0  0  2  0  0  3           0  0  0
    3.2313    2.7691   -1.6068 C   0  0  0  0  0  4           0  0  0
    1.1065    2.1398   -1.2362 C   0  0  0  0  0  4           0  0  0
    3.2664    1.5601   -0.9045 C   0  0  0  0  0  4           0  0  0
    1.9047    1.1625   -0.6719 C   0  0  0  0  0  4           0  0  0
    4.3850    3.4528   -2.0089 C   0  0  0  0  0  4           0  0  0
    4.5332    1.0156   -0.5934 C   0  0  0  0  0  4           0  0  0
    5.6207    2.8897   -1.6857 C   0  0  0  0  0  4           0  0  0
    5.6959    1.6887   -0.9881 C   0  0  0  0  0  4           0  0  0
    1.3649    0.0000   -0.0000 C   0  0  0  0  0  4           0  0  0
   -3.4031    0.7665    4.9850 C   0  0  0  0  0  4           0  0  0
   -0.7041    0.0000    1.2579 C   0  0  2  0  0  4           0  0  0
   -3.0610    0.2698    2.2104 C   0  0  1  0  0  4           0  0  0
   -1.2473    1.4635    3.2802 C   0  0  2  0  0  4           0  0  0
   -3.5390    1.8794    3.9642 C   0  0  0  0  0  4           0  0  0
   -2.4456   -0.3342    4.5790 C   0  0  1  0  0  4           0  0  0
   -2.2059   -0.0000    0.9625 C   0  0  0  0  0  4           0  0  0
   -0.3243    1.2411    2.0718 C   0  0  0  0  0  4           0  0  0
   -2.9830   -0.8770    3.2504 C   0  0  0  0  0  4           0  0  0
   -1.0968    0.3586    4.3574 C   0  0  0  0  0  4           0  0  0
  1 14  2  0     0  0
  2 15  2  0     0  0
  3 14  1  0     0  0
  3 16  1  0     0  0
  4  6  1  0     0  0
  4  7  1  0     0  0
  5 17  1  0     0  0
  5 18  1  0     0  0
  5 19  1  0     0  0
  6  8  2  0     0  0
  6 10  1  0     0  0
  7  9  2  0     0  0
  8  9  1  0     0  0
  8 11  1  0     0  0
  9 14  1  0     0  0
 10 12  2  0     0  0
 11 13  2  0     0  0
 12 13  1  0     0  0
 15 19  1  0     0  0
 15 20  1  0     0  0
 16 21  1  0     0  0
 16 22  1  0     0  0
 17 21  1  0     0  0
 17 23  1  0     0  0
 18 22  1  0     0  0
 18 24  1  0     0  0
 20 23  1  0     0  0
 20 24  1  0     0  0
M  END
> <standard_type>
pIC50

> <# Confs.>
25

> <canonical_smiles>
O=C1C2C[C@@](C[C@H](OC(C3=CNC4=C3C=CC=C4)=O)C[C@]5([H])C2)([H])[N@]5C1

> <standard_relation>
=

> <Publication_ID>
nan

> <predicted_activity_value>
nan

> <actual_activity_value>
-0.7745169657285496

> <Compound>
Dolasetron

> <standard_units>
uM

> hash
10341232691232189393

$$$$
16
XXILIB    08252103503D 0   0.00000     0.00000

 24 28  0     1  0            999 V2000
    2.0678   -0.5020    0.8695 O   0  0  0  0  0  2           0  0  0
   -3.8714   -0.8583    6.1287 O   0  0  0  0  0  2           0  0  0
    0.0000    0.0000    0.0000 O   0  0  0  0  0  2           0  0  0
    2.0137    1.4055   -3.2698 N   0  0  0  0  0  3           0  0  0
   -2.6064   -1.5969    2.8474 N   0  0  2  0  0  3           0  0  0
    3.1670    1.8411   -2.6638 C   0  0  0  0  0  4           0  0  0
    1.2506    0.7030   -2.3805 C   0  0  0  0  0  4           0  0  0
    3.1318    1.3990   -1.3374 C   0  0  0  0  0  4           0  0  0
    1.9047    0.6708   -1.1631 C   0  0  0  0  0  4           0  0  0
    4.2273    2.5871   -3.1926 C   0  0  0  0  0  4           0  0  0
    4.2249    1.7286   -0.5040 C   0  0  0  0  0  4           0  0  0
    5.2913    2.8972   -2.3439 C   0  0  0  0  0  4           0  0  0
    5.2920    2.4751   -1.0186 C   0  0  0  0  0  4           0  0  0
    1.3649    0.0000    0.0000 C   0  0  0  0  0  4           0  0  0
   -3.2824   -0.8464    5.0526 C   0  0  0  0  0  4           0  0  0
   -0.7041    0.0000    1.2579 C   0  0  2  0  0  4           0  0  0
   -1.1819   -1.5131    3.2623 C   0  0  1  0  0  4           0  0  0
   -3.0257   -0.2868    2.2848 C   0  0  2  0  0  4           0  0  0
   -3.4515   -1.9373    4.0133 C   0  0  0  0  0  4           0  0  0
   -2.3272    0.2558    4.6453 C   0  0  1  0  0  4           0  0  0
   -0.3018   -1.2598    2.0283 C   0  0  0  0  0  4           0  0  0
   -2.2163    0.0107    1.0128 C   0  0  0  0  0  4           0  0  0
   -0.9911   -0.4409    4.3653 C   0  0  0  0  0  4           0  0  0
   -2.9008    0.8350    3.3477 C   0  0  0  0  0  4           0  0  0
  1 14  2  0     0  0
  2 15  2  0     0  0
  3 14  1  0     0  0
  3 16  1  0     0  0
  4  6  1  0     0  0
  4  7  1  0     0  0
  5 17  1  0     0  0
  5 18  1  0     0  0
  5 19  1  0     0  0
  6  8  2  0     0  0
  6 10  1  0     0  0
  7  9  2  0     0  0
  8  9  1  0     0  0
  8 11  1  0     0  0
  9 14  1  0     0  0
 10 12  2  0     0  0
 11 13  2  0     0  0
 12 13  1  0     0  0
 15 19  1  0     0  0
 15 20  1  0     0  0
 16 21  1  0     0  0
 16 22  1  0     0  0
 17 21  1  0     0  0
 17 23  1  0     0  0
 18 22  1  0     0  0
 18 24  1  0     0  0
 20 23  1  0     0  0
 20 24  1  0     0  0
M  END
> <standard_type>
pIC50

> <# Confs.>
25

> <canonical_smiles>
O=C1C2C[C@@](C[C@H](OC(C3=CNC4=C3C=CC=C4)=O)C[C@]5([H])C2)([H])[N@]5C1

> <standard_relation>
=

> <Publication_ID>
nan

> <predicted_activity_value>
nan

> <actual_activity_value>
-0.7745169657285496

> <Compound>
Dolasetron

> <standard_units>
uM

> hash
10341232691232189393

$$$$
16
XXILIB    08252103503D 0   0.00000     0.00000

 24 28  0     1  0            999 V2000
    2.0678   -0.5020    0.8695 O   0  0  0  0  0  2           0  0  0
   -3.8714   -0.8583    6.1287 O   0  0  0  0  0  2           0  0  0
    0.0000    0.0000    0.0000 O   0  0  0  0  0  2           0  0  0
    2.0118    2.1237   -2.8565 N   0  0  0  0  0  3           0  0  0
   -2.6064   -1.5969    2.8474 N   0  0  2  0  0  3           0  0  0
    3.1619    1.3765   -2.9341 C   0  0  0  0  0  4           0  0  0
    1.2511    1.7091   -1.8000 C   0  0  0  0  0  4           0  0  0
    3.1296    0.4538   -1.8835 C   0  0  0  0  0  4           0  0  0
    1.9047    0.6708   -1.1631 C   0  0  0  0  0  4           0  0  0
    4.2166    1.4526   -3.8518 C   0  0  0  0  0  4           0  0  0
    4.2197   -0.4367   -1.7552 C   0  0  0  0  0  4           0  0  0
    5.2787    0.5602   -3.6976 C   0  0  0  0  0  4           0  0  0
    5.2823   -0.3717   -2.6649 C   0  0  0  0  0  4           0  0  0
    1.3649    0.0000   -0.0000 C   0  0  0  0  0  4           0  0  0
   -3.2824   -0.8464    5.0526 C   0  0  0  0  0  4           0  0  0
   -0.7041    0.0000    1.2579 C   0  0  2  0  0  4           0  0  0
   -1.1819   -1.5131    3.2623 C   0  0  1  0  0  4           0  0  0
   -3.0257   -0.2868    2.2848 C   0  0  2  0  0  4           0  0  0
   -3.4515   -1.9373    4.0133 C   0  0  0  0  0  4           0  0  0
   -2.3272    0.2558    4.6453 C   0  0  1  0  0  4           0  0  0
   -0.3018   -1.2598    2.0283 C   0  0  0  0  0  4           0  0  0
   -2.2163    0.0107    1.0128 C   0  0  0  0  0  4           0  0  0
   -0.9911   -0.4409    4.3653 C   0  0  0  0  0  4           0  0  0
   -2.9008    0.8350    3.3477 C   0  0  0  0  0  4           0  0  0
  1 14  2  0     0  0
  2 15  2  0     0  0
  3 14  1  0     0  0
  3 16  1  0     0  0
  4  6  1  0     0  0
  4  7  1  0     0  0
  5 17  1  0     0  0
  5 18  1  0     0  0
  5 19  1  0     0  0
  6  8  2  0     0  0
  6 10  1  0     0  0
  7  9  2  0     0  0
  8  9  1  0     0  0
  8 11  1  0     0  0
  9 14  1  0     0  0
 10 12  2  0     0  0
 11 13  2  0     0  0
 12 13  1  0     0  0
 15 19  1  0     0  0
 15 20  1  0     0  0
 16 21  1  0     0  0
 16 22  1  0     0  0
 17 21  1  0     0  0
 17 23  1  0     0  0
 18 22  1  0     0  0
 18 24  1  0     0  0
 20 23  1  0     0  0
 20 24  1  0     0  0
M  END
> <standard_type>
pIC50

> <# Confs.>
25

> <canonical_smiles>
O=C1C2C[C@@](C[C@H](OC(C3=CNC4=C3C=CC=C4)=O)C[C@]5([H])C2)([H])[N@]5C1

> <standard_relation>
=

> <Publication_ID>
nan

> <predicted_activity_value>
nan

> <actual_activity_value>
-0.7745169657285496

> <Compound>
Dolasetron

> <standard_units>
uM

> hash
10341232691232189393

$$$$
16
XXILIB    08252103503D 0   0.00000     0.00000

 24 28  0     1  0            999 V2000
    2.0678    0.8695    0.5020 O   0  0  0  0  0  2           0  0  0
   -3.8714   -0.8583    6.1287 O   0  0  0  0  0  2           0  0  0
    0.0000    0.0000    0.0000 O   0  0  0  0  0  2           0  0  0
    3.4473   -2.5617   -1.4798 N   0  0  0  0  0  3           0  0  0
   -2.6064   -1.5969    2.8474 N   0  0  2  0  0  3           0  0  0
    2.2339   -3.1179   -1.8045 C   0  0  0  0  0  4           0  0  0
    3.2620   -1.3903   -0.8012 C   0  0  0  0  0  4           0  0  0
    1.2408   -2.2664   -1.3099 C   0  0  0  0  0  4           0  0  0
    1.9047   -1.1631   -0.6708 C   0  0  0  0  0  4           0  0  0
    1.9503   -4.3026   -2.4948 C   0  0  0  0  0  4           0  0  0
   -0.1075   -2.6323   -1.5245 C   0  0  0  0  0  4           0  0  0
    0.6090   -4.6366   -2.6897 C   0  0  0  0  0  4           0  0  0
   -0.4066   -3.8149   -2.2122 C   0  0  0  0  0  4           0  0  0
    1.3649   -0.0000   -0.0000 C   0  0  0  0  0  4           0  0  0
   -3.2824   -0.8464    5.0526 C   0  0  0  0  0  4           0  0  0
   -0.7041    0.0000    1.2579 C   0  0  2  0  0  4           0  0  0
   -1.1819   -1.5131    3.2623 C   0  0  1  0  0  4           0  0  0
   -3.0257   -0.2868    2.2848 C   0  0  2  0  0  4           0  0  0
   -3.4515   -1.9373    4.0133 C   0  0  0  0  0  4           0  0  0
   -2.3272    0.2558    4.6453 C   0  0  1  0  0  4           0  0  0
   -0.3018   -1.2598    2.0283 C   0  0  0  0  0  4           0  0  0
   -2.2163    0.0107    1.0128 C   0  0  0  0  0  4           0  0  0
   -0.9911   -0.4409    4.3653 C   0  0  0  0  0  4           0  0  0
   -2.9008    0.8350    3.3477 C   0  0  0  0  0  4           0  0  0
  1 14  2  0     0  0
  2 15  2  0     0  0
  3 14  1  0     0  0
  3 16  1  0     0  0
  4  6  1  0     0  0
  4  7  1  0     0  0
  5 17  1  0     0  0
  5 18  1  0     0  0
  5 19  1  0     0  0
  6  8  2  0     0  0
  6 10  1  0     0  0
  7  9  2  0     0  0
  8  9  1  0     0  0
  8 11  1  0     0  0
  9 14  1  0     0  0
 10 12  2  0     0  0
 11 13  2  0     0  0
 12 13  1  0     0  0
 15 19  1  0     0  0
 15 20  1  0     0  0
 16 21  1  0     0  0
 16 22  1  0     0  0
 17 21  1  0     0  0
 17 23  1  0     0  0
 18 22  1  0     0  0
 18 24  1  0     0  0
 20 23  1  0     0  0
 20 24  1  0     0  0
M  END
> <standard_type>
pIC50

> <# Confs.>
25

> <canonical_smiles>
O=C1C2C[C@@](C[C@H](OC(C3=CNC4=C3C=CC=C4)=O)C[C@]5([H])C2)([H])[N@]5C1

> <standard_relation>
=

> <Publication_ID>
nan

> <predicted_activity_value>
nan

> <actual_activity_value>
-0.7745169657285496

> <Compound>
Dolasetron

> <standard_units>
uM

> hash
10341232691232189393

$$$$
24
XXILIB    08252103503D 0   0.00000     0.00000

 33 35  0     1  0            999 V2000
   -3.8688   -3.7710    4.7438 Cl  0  0  0  0  0  1           0  0  0
   -5.4435   -0.8810    8.9472 Cl  0  0  0  0  0  1           0  0  0
   -3.9185    5.1562    6.5721 F   0  0  0  0  0  1           0  0  0
   -2.2527    5.9567    5.4266 F   0  0  0  0  0  1           0  0  0
   -4.2731    6.1006    4.6457 F   0  0  0  0  0  1           0  0  0
   -2.6158   -1.1589    0.7592 O   0  0  0  0  0  2           0  0  0
    1.4670   -0.0000   -0.0000 N   0  0  1  0  0  3           0  0  0
   -4.0483   -2.1962    5.4560 C   0  0  0  0  0  4           0  0  0
   -4.7672   -0.9435    7.3640 C   0  0  0  0  0  4           0  0  0
   -3.6574   -1.0060    4.7797 C   0  0  0  0  0  4           0  0  0
   -3.8293    0.2505    5.4154 C   0  0  0  0  0  4           0  0  0
   -3.4468    1.4629    4.7305 C   0  0  0  0  0  4           0  0  0
   -2.8938    1.3992    3.4203 C   0  0  0  0  0  4           0  0  0
   -2.6997    0.1375    2.8054 C   0  0  0  0  0  4           0  0  0
   -3.2590    3.9410    4.6422 C   0  0  0  0  0  4           0  0  0
   -4.5990   -2.1639    6.7367 C   0  0  0  0  0  4           0  0  0
   -4.3919    0.2371    6.7201 C   0  0  0  0  0  4           0  0  0
   -3.0990   -1.0238    3.4879 C   0  0  0  0  0  4           0  0  0
   -3.5999    2.7555    5.3059 C   0  0  0  0  0  4           0  0  0
   -2.5558    2.6102    2.7677 C   0  0  0  0  0  4           0  0  0
   -2.7293    3.8566    3.3654 C   0  0  0  0  0  4           0  0  0
   -3.4224    5.2682    5.3092 C   0  0  2  0  0  4           0  0  0
   -2.1122   -0.0000    1.4247 C   0  0  1  0  0  4           0  0  0
    0.0000    0.0000   -0.0000 C   0  0  0  0  0  4           0  0  0
    2.0664   -1.1589    0.6691 C   0  0  0  0  0  4           0  0  0
    2.0437    0.2356   -1.3279 C   0  0  0  0  0  4           0  0  0
   -0.5790    0.0000    1.4137 C   0  0  0  0  0  4           0  0  0
    1.6580   -2.4789    0.0175 C   0  0  0  0  0  4           0  0  0
    1.6215    1.5826   -1.9119 C   0  0  0  0  0  4           0  0  0
    2.2768   -3.6919    0.7069 C   0  0  0  0  0  4           0  0  0
    2.0510    2.7615   -1.0429 C   0  0  0  0  0  4           0  0  0
    1.8544   -4.9914    0.0391 C   0  0  0  0  0  4           0  0  0
    1.6186    4.0888   -1.6466 C   0  0  0  0  0  4           0  0  0
  1  8  1  0     0  0
  2  9  1  0     0  0
  3 22  1  0     0  0
  4 22  1  0     0  0
  5 22  1  0     0  0
  6 23  1  0     0  0
  7 24  1  0     0  0
  7 25  1  0     0  0
  7 26  1  0     0  0
  8 10  2  0     0  0
  8 16  1  0     0  0
  9 16  2  0     0  0
  9 17  1  0     0  0
 10 11  1  0     0  0
 10 18  1  0     0  0
 11 12  1  0     0  0
 11 17  2  0     0  0
 12 13  1  0     0  0
 12 19  2  0     0  0
 13 14  1  0     0  0
 13 20  2  0     0  0
 14 18  2  0     0  0
 14 23  1  0     0  0
 15 19  1  0     0  0
 15 21  2  0     0  0
 15 22  1  0     0  0
 20 21  1  0     0  0
 23 27  1  0     0  0
 24 27  1  0     0  0
 25 28  1  0     0  0
 26 29  1  0     0  0
 28 30  1  0     0  0
 29 31  1  0     0  0
 30 32  1  0     0  0
 31 33  1  0     0  0
M  END
> <standard_type>
pIC50

> <# Confs.>
25

> <canonical_smiles>
OC(C1=CC2=C(C=C(C=C2C3=CC(C(F)(F)F)=CC=C13)Cl)Cl)CCN(CCCC)CCCC

> <standard_relation>
=

> <Publication_ID>
nan

> <predicted_activity_value>
nan

> <actual_activity_value>
0.7055337738384071

> <Compound>
Halofantrine 

> <standard_units>
uM

> hash
18287317948981362988

$$$$
24
XXILIB    08252103503D 0   0.00000     0.00000

 33 35  0     1  0            999 V2000
   -1.9542    5.2471    2.2996 Cl  0  0  0  0  0  1           0  0  0
   -4.7539    7.1303   -1.8375 Cl  0  0  0  0  0  1           0  0  0
   -6.1869    1.3060   -4.7427 F   0  0  0  0  0  1           0  0  0
   -5.0706   -0.5266   -5.0936 F   0  0  0  0  0  1           0  0  0
   -6.9136   -0.5831   -3.9481 F   0  0  0  0  0  1           0  0  0
   -2.6013   -0.0000    2.7664 O   0  0  0  0  0  2           0  0  0
    1.4670   -0.0000   -0.0000 N   0  0  1  0  0  3           0  0  0
   -2.8574    4.8936    0.8579 C   0  0  0  0  0  4           0  0  0
   -4.1042    5.7848   -0.9799 C   0  0  0  0  0  4           0  0  0
   -3.0571    3.5632    0.3919 C   0  0  0  0  0  4           0  0  0
   -3.8040    3.3399   -0.7933 C   0  0  0  0  0  4           0  0  0
   -4.0214    1.9925   -1.2650 C   0  0  0  0  0  4           0  0  0
   -3.4841    0.8881   -0.5451 C   0  0  0  0  0  4           0  0  0
   -2.7154    1.1233    0.6217 C   0  0  0  0  0  4           0  0  0
   -5.0096    0.3941   -2.8937 C   0  0  0  0  0  4           0  0  0
   -3.3776    5.9939    0.1773 C   0  0  0  0  0  4           0  0  0
   -4.3138    4.4890   -1.4556 C   0  0  0  0  0  4           0  0  0
   -2.5366    2.4436    1.0676 C   0  0  0  0  0  4           0  0  0
   -4.7677    1.6972   -2.4402 C   0  0  0  0  0  4           0  0  0
   -3.7407   -0.4209   -1.0216 C   0  0  0  0  0  4           0  0  0
   -4.4837   -0.6660   -2.1743 C   0  0  0  0  0  4           0  0  0
   -5.7824    0.1495   -4.1490 C   0  0  2  0  0  4           0  0  0
   -2.1122   -0.0000    1.4247 C   0  0  1  0  0  4           0  0  0
    0.0000   -0.0000    0.0000 C   0  0  0  0  0  4           0  0  0
    2.0664   -1.1589    0.6691 C   0  0  0  0  0  4           0  0  0
    2.0437    0.2356   -1.3279 C   0  0  0  0  0  4           0  0  0
   -0.5790   -0.0000    1.4137 C   0  0  0  0  0  4           0  0  0
    1.6580   -2.4789    0.0175 C   0  0  0  0  0  4           0  0  0
    1.6215    1.5826   -1.9119 C   0  0  0  0  0  4           0  0  0
    2.2768   -3.6919    0.7069 C   0  0  0  0  0  4           0  0  0
    2.0510    2.7615   -1.0429 C   0  0  0  0  0  4           0  0  0
    1.8544   -4.9914    0.0391 C   0  0  0  0  0  4           0  0  0
    1.6186    4.0888   -1.6466 C   0  0  0  0  0  4           0  0  0
  1  8  1  0     0  0
  2  9  1  0     0  0
  3 22  1  0     0  0
  4 22  1  0     0  0
  5 22  1  0     0  0
  6 23  1  0     0  0
  7 24  1  0     0  0
  7 25  1  0     0  0
  7 26  1  0     0  0
  8 10  2  0     0  0
  8 16  1  0     0  0
  9 16  2  0     0  0
  9 17  1  0     0  0
 10 11  1  0     0  0
 10 18  1  0     0  0
 11 12  1  0     0  0
 11 17  2  0     0  0
 12 13  1  0     0  0
 12 19  2  0     0  0
 13 14  1  0     0  0
 13 20  2  0     0  0
 14 18  2  0     0  0
 14 23  1  0     0  0
 15 19  1  0     0  0
 15 21  2  0     0  0
 15 22  1  0     0  0
 20 21  1  0     0  0
 23 27  1  0     0  0
 24 27  1  0     0  0
 25 28  1  0     0  0
 26 29  1  0     0  0
 28 30  1  0     0  0
 29 31  1  0     0  0
 30 32  1  0     0  0
 31 33  1  0     0  0
M  END
> <standard_type>
pIC50

> <# Confs.>
25

> <canonical_smiles>
OC(C1=CC2=C(C=C(C=C2C3=CC(C(F)(F)F)=CC=C13)Cl)Cl)CCN(CCCC)CCCC

> <standard_relation>
=

> <Publication_ID>
nan

> <predicted_activity_value>
nan

> <actual_activity_value>
0.7055337738384071

> <Compound>
Halofantrine 

> <standard_units>
uM

> hash
18287317948981362988

$$$$
24
XXILIB    08252103503D 0   0.00000     0.00000

 33 35  0     1  0            999 V2000
   -3.8688   -3.7710    4.7438 Cl  0  0  0  0  0  1           0  0  0
   -5.4435   -0.8810    8.9472 Cl  0  0  0  0  0  1           0  0  0
   -3.9185    5.1562    6.5721 F   0  0  0  0  0  1           0  0  0
   -2.2527    5.9567    5.4266 F   0  0  0  0  0  1           0  0  0
   -4.2731    6.1006    4.6457 F   0  0  0  0  0  1           0  0  0
   -2.6158   -1.1589    0.7592 O   0  0  0  0  0  2           0  0  0
    1.4670   -0.0000    0.0000 N   0  0  1  0  0  3           0  0  0
   -4.0483   -2.1962    5.4560 C   0  0  0  0  0  4           0  0  0
   -4.7672   -0.9435    7.3640 C   0  0  0  0  0  4           0  0  0
   -3.6574   -1.0060    4.7797 C   0  0  0  0  0  4           0  0  0
   -3.8293    0.2505    5.4154 C   0  0  0  0  0  4           0  0  0
   -3.4468    1.4629    4.7305 C   0  0  0  0  0  4           0  0  0
   -2.8938    1.3992    3.4203 C   0  0  0  0  0  4           0  0  0
   -2.6997    0.1375    2.8054 C   0  0  0  0  0  4           0  0  0
   -3.2590    3.9410    4.6422 C   0  0  0  0  0  4           0  0  0
   -4.5990   -2.1639    6.7367 C   0  0  0  0  0  4           0  0  0
   -4.3919    0.2371    6.7201 C   0  0  0  0  0  4           0  0  0
   -3.0990   -1.0238    3.4879 C   0  0  0  0  0  4           0  0  0
   -3.5999    2.7555    5.3059 C   0  0  0  0  0  4           0  0  0
   -2.5558    2.6102    2.7677 C   0  0  0  0  0  4           0  0  0
   -2.7293    3.8566    3.3654 C   0  0  0  0  0  4           0  0  0
   -3.4224    5.2682    5.3092 C   0  0  2  0  0  4           0  0  0
   -2.1122   -0.0000    1.4247 C   0  0  1  0  0  4           0  0  0
    0.0000    0.0000   -0.0000 C   0  0  0  0  0  4           0  0  0
    2.0664   -1.1589    0.6691 C   0  0  0  0  0  4           0  0  0
    2.0437    0.2356   -1.3279 C   0  0  0  0  0  4           0  0  0
   -0.5790    0.0000    1.4137 C   0  0  0  0  0  4           0  0  0
    1.6580   -2.4789    0.0175 C   0  0  0  0  0  4           0  0  0
    1.6215    1.5826   -1.9119 C   0  0  0  0  0  4           0  0  0
    2.2768   -3.6919    0.7069 C   0  0  0  0  0  4           0  0  0
    2.2165    1.8374   -3.2941 C   0  0  0  0  0  4           0  0  0
    1.8544   -4.9914    0.0391 C   0  0  0  0  0  4           0  0  0
    1.7807    3.1836   -3.8517 C   0  0  0  0  0  4           0  0  0
  1  8  1  0     0  0
  2  9  1  0     0  0
  3 22  1  0     0  0
  4 22  1  0     0  0
  5 22  1  0     0  0
  6 23  1  0     0  0
  7 24  1  0     0  0
  7 25  1  0     0  0
  7 26  1  0     0  0
  8 10  2  0     0  0
  8 16  1  0     0  0
  9 16  2  0     0  0
  9 17  1  0     0  0
 10 11  1  0     0  0
 10 18  1  0     0  0
 11 12  1  0     0  0
 11 17  2  0     0  0
 12 13  1  0     0  0
 12 19  2  0     0  0
 13 14  1  0     0  0
 13 20  2  0     0  0
 14 18  2  0     0  0
 14 23  1  0     0  0
 15 19  1  0     0  0
 15 21  2  0     0  0
 15 22  1  0     0  0
 20 21  1  0     0  0
 23 27  1  0     0  0
 24 27  1  0     0  0
 25 28  1  0     0  0
 26 29  1  0     0  0
 28 30  1  0     0  0
 29 31  1  0     0  0
 30 32  1  0     0  0
 31 33  1  0     0  0
M  END
> <standard_type>
pIC50

> <# Confs.>
25

> <canonical_smiles>
OC(C1=CC2=C(C=C(C=C2C3=CC(C(F)(F)F)=CC=C13)Cl)Cl)CCN(CCCC)CCCC

> <standard_relation>
=

> <Publication_ID>
nan

> <predicted_activity_value>
nan

> <actual_activity_value>
0.7055337738384071

> <Compound>
Halofantrine 

> <standard_units>
uM

> hash
18287317948981362988

$$$$
24
XXILIB    08252103503D 0   0.00000     0.00000

 33 35  0     1  0            999 V2000
   -1.9542    5.2471    2.2996 Cl  0  0  0  0  0  1           0  0  0
   -4.7539    7.1303   -1.8375 Cl  0  0  0  0  0  1           0  0  0
   -6.1869    1.3060   -4.7427 F   0  0  0  0  0  1           0  0  0
   -5.0706   -0.5266   -5.0936 F   0  0  0  0  0  1           0  0  0
   -6.9136   -0.5831   -3.9481 F   0  0  0  0  0  1           0  0  0
   -2.6013   -0.0000    2.7664 O   0  0  0  0  0  2           0  0  0
    1.4670   -0.0000    0.0000 N   0  0  1  0  0  3           0  0  0
   -2.8574    4.8936    0.8579 C   0  0  0  0  0  4           0  0  0
   -4.1042    5.7848   -0.9799 C   0  0  0  0  0  4           0  0  0
   -3.0571    3.5632    0.3919 C   0  0  0  0  0  4           0  0  0
   -3.8040    3.3399   -0.7933 C   0  0  0  0  0  4           0  0  0
   -4.0214    1.9925   -1.2650 C   0  0  0  0  0  4           0  0  0
   -3.4841    0.8881   -0.5451 C   0  0  0  0  0  4           0  0  0
   -2.7154    1.1233    0.6217 C   0  0  0  0  0  4           0  0  0
   -5.0096    0.3941   -2.8937 C   0  0  0  0  0  4           0  0  0
   -3.3776    5.9939    0.1773 C   0  0  0  0  0  4           0  0  0
   -4.3138    4.4890   -1.4556 C   0  0  0  0  0  4           0  0  0
   -2.5366    2.4436    1.0676 C   0  0  0  0  0  4           0  0  0
   -4.7677    1.6972   -2.4402 C   0  0  0  0  0  4           0  0  0
   -3.7407   -0.4209   -1.0216 C   0  0  0  0  0  4           0  0  0
   -4.4837   -0.6660   -2.1743 C   0  0  0  0  0  4           0  0  0
   -5.7824    0.1495   -4.1490 C   0  0  2  0  0  4           0  0  0
   -2.1122   -0.0000    1.4247 C   0  0  1  0  0  4           0  0  0
    0.0000   -0.0000    0.0000 C   0  0  0  0  0  4           0  0  0
    2.0664   -1.1589    0.6691 C   0  0  0  0  0  4           0  0  0
    2.0437    0.2356   -1.3279 C   0  0  0  0  0  4           0  0  0
   -0.5790   -0.0000    1.4137 C   0  0  0  0  0  4           0  0  0
    1.6580   -2.4789    0.0175 C   0  0  0  0  0  4           0  0  0
    1.6215    1.5826   -1.9119 C   0  0  0  0  0  4           0  0  0
    2.2768   -3.6919    0.7069 C   0  0  0  0  0  4           0  0  0
    2.2165    1.8374   -3.2941 C   0  0  0  0  0  4           0  0  0
    1.8544   -4.9914    0.0391 C   0  0  0  0  0  4           0  0  0
    1.7807    3.1836   -3.8517 C   0  0  0  0  0  4           0  0  0
  1  8  1  0     0  0
  2  9  1  0     0  0
  3 22  1  0     0  0
  4 22  1  0     0  0
  5 22  1  0     0  0
  6 23  1  0     0  0
  7 24  1  0     0  0
  7 25  1  0     0  0
  7 26  1  0     0  0
  8 10  2  0     0  0
  8 16  1  0     0  0
  9 16  2  0     0  0
  9 17  1  0     0  0
 10 11  1  0     0  0
 10 18  1  0     0  0
 11 12  1  0     0  0
 11 17  2  0     0  0
 12 13  1  0     0  0
 12 19  2  0     0  0
 13 14  1  0     0  0
 13 20  2  0     0  0
 14 18  2  0     0  0
 14 23  1  0     0  0
 15 19  1  0     0  0
 15 21  2  0     0  0
 15 22  1  0     0  0
 20 21  1  0     0  0
 23 27  1  0     0  0
 24 27  1  0     0  0
 25 28  1  0     0  0
 26 29  1  0     0  0
 28 30  1  0     0  0
 29 31  1  0     0  0
 30 32  1  0     0  0
 31 33  1  0     0  0
M  END
> <standard_type>
pIC50

> <# Confs.>
25

> <canonical_smiles>
OC(C1=CC2=C(C=C(C=C2C3=CC(C(F)(F)F)=CC=C13)Cl)Cl)CCN(CCCC)CCCC

> <standard_relation>
=

> <Publication_ID>
nan

> <predicted_activity_value>
nan

> <actual_activity_value>
0.7055337738384071

> <Compound>
Halofantrine 

> <standard_units>
uM

> hash
18287317948981362988

$$$$
24
XXILIB    08252103503D 0   0.00000     0.00000

 33 35  0     1  0            999 V2000
   -0.3951   -2.0044    6.0459 Cl  0  0  0  0  0  1           0  0  0
   -4.0656   -0.1740    9.4631 Cl  0  0  0  0  0  1           0  0  0
   -7.8489    3.1515    5.0993 F   0  0  0  0  0  1           0  0  0
   -7.4248    4.4127    3.3796 F   0  0  0  0  0  1           0  0  0
   -8.6274    2.6216    3.1393 F   0  0  0  0  0  1           0  0  0
   -2.6158   -1.1589    0.7592 O   0  0  0  0  0  2           0  0  0
    1.4670   -0.0000   -0.0000 N   0  0  1  0  0  3           0  0  0
   -1.8471   -1.0796    6.2814 C   0  0  0  0  0  4           0  0  0
   -3.4676   -0.2816    7.8510 C   0  0  0  0  0  4           0  0  0
   -2.5203   -0.4329    5.2065 C   0  0  0  0  0  4           0  0  0
   -3.7021    0.3086    5.4637 C   0  0  0  0  0  4           0  0  0
   -4.3972    0.9566    4.3766 C   0  0  0  0  0  4           0  0  0
   -3.8964    0.8563    3.0477 C   0  0  0  0  0  4           0  0  0
   -2.6997    0.1375    2.8054 C   0  0  0  0  0  4           0  0  0
   -6.2908    2.3182    3.5138 C   0  0  0  0  0  4           0  0  0
   -2.3181   -1.0044    7.5918 C   0  0  0  0  0  4           0  0  0
   -4.1452    0.3604    6.8128 C   0  0  0  0  0  4           0  0  0
   -2.0554   -0.4988    3.8796 C   0  0  0  0  0  4           0  0  0
   -5.5914    1.7079    4.5628 C   0  0  0  0  0  4           0  0  0
   -4.6193    1.4814    2.0021 C   0  0  0  0  0  4           0  0  0
   -5.7900    2.2021    2.2278 C   0  0  0  0  0  4           0  0  0
   -7.5281    3.1136    3.7767 C   0  0  2  0  0  4           0  0  0
   -2.1122   -0.0000    1.4247 C   0  0  1  0  0  4           0  0  0
    0.0000    0.0000   -0.0000 C   0  0  0  0  0  4           0  0  0
    2.0664   -1.1589    0.6691 C   0  0  0  0  0  4           0  0  0
    2.0437    0.2356   -1.3279 C   0  0  0  0  0  4           0  0  0
   -0.5790    0.0000    1.4137 C   0  0  0  0  0  4           0  0  0
    1.6580   -2.4789    0.0175 C   0  0  0  0  0  4           0  0  0
    1.6215    1.5826   -1.9119 C   0  0  0  0  0  4           0  0  0
    2.2768   -3.6919    0.7069 C   0  0  0  0  0  4           0  0  0
    2.0510    2.7615   -1.0429 C   0  0  0  0  0  4           0  0  0
    1.8544   -4.9914    0.0391 C   0  0  0  0  0  4           0  0  0
    1.6186    4.0888   -1.6466 C   0  0  0  0  0  4           0  0  0
  1  8  1  0     0  0
  2  9  1  0     0  0
  3 22  1  0     0  0
  4 22  1  0     0  0
  5 22  1  0     0  0
  6 23  1  0     0  0
  7 24  1  0     0  0
  7 25  1  0     0  0
  7 26  1  0     0  0
  8 10  2  0     0  0
  8 16  1  0     0  0
  9 16  2  0     0  0
  9 17  1  0     0  0
 10 11  1  0     0  0
 10 18  1  0     0  0
 11 12  1  0     0  0
 11 17  2  0     0  0
 12 13  1  0     0  0
 12 19  2  0     0  0
 13 14  1  0     0  0
 13 20  2  0     0  0
 14 18  2  0     0  0
 14 23  1  0     0  0
 15 19  1  0     0  0
 15 21  2  0     0  0
 15 22  1  0     0  0
 20 21  1  0     0  0
 23 27  1  0     0  0
 24 27  1  0     0  0
 25 28  1  0     0  0
 26 29  1  0     0  0
 28 30  1  0     0  0
 29 31  1  0     0  0
 30 32  1  0     0  0
 31 33  1  0     0  0
M  END
> <standard_type>
pIC50

> <# Confs.>
25

> <canonical_smiles>
OC(C1=CC2=C(C=C(C=C2C3=CC(C(F)(F)F)=CC=C13)Cl)Cl)CCN(CCCC)CCCC

> <standard_relation>
=

> <Publication_ID>
nan

> <predicted_activity_value>
nan

> <actual_activity_value>
0.7055337738384071

> <Compound>
Halofantrine 

> <standard_units>
uM

> hash
18287317948981362988

$$$$
24
XXILIB    08252103503D 0   0.00000     0.00000

 33 35  0     1  0            999 V2000
   -1.9542    5.2471    2.2996 Cl  0  0  0  0  0  1           0  0  0
   -4.7539    7.1303   -1.8375 Cl  0  0  0  0  0  1           0  0  0
   -6.1869    1.3060   -4.7427 F   0  0  0  0  0  1           0  0  0
   -5.0706   -0.5266   -5.0936 F   0  0  0  0  0  1           0  0  0
   -6.9136   -0.5831   -3.9481 F   0  0  0  0  0  1           0  0  0
   -2.6013   -0.0000    2.7664 O   0  0  0  0  0  2           0  0  0
    1.4670   -0.0000    0.0000 N   0  0  1  0  0  3           0  0  0
   -2.8574    4.8936    0.8579 C   0  0  0  0  0  4           0  0  0
   -4.1042    5.7848   -0.9799 C   0  0  0  0  0  4           0  0  0
   -3.0571    3.5632    0.3919 C   0  0  0  0  0  4           0  0  0
   -3.8040    3.3399   -0.7933 C   0  0  0  0  0  4           0  0  0
   -4.0214    1.9925   -1.2650 C   0  0  0  0  0  4           0  0  0
   -3.4841    0.8881   -0.5451 C   0  0  0  0  0  4           0  0  0
   -2.7154    1.1233    0.6217 C   0  0  0  0  0  4           0  0  0
   -5.0096    0.3941   -2.8937 C   0  0  0  0  0  4           0  0  0
   -3.3776    5.9939    0.1773 C   0  0  0  0  0  4           0  0  0
   -4.3138    4.4890   -1.4556 C   0  0  0  0  0  4           0  0  0
   -2.5366    2.4436    1.0676 C   0  0  0  0  0  4           0  0  0
   -4.7677    1.6972   -2.4402 C   0  0  0  0  0  4           0  0  0
   -3.7407   -0.4209   -1.0216 C   0  0  0  0  0  4           0  0  0
   -4.4837   -0.6660   -2.1743 C   0  0  0  0  0  4           0  0  0
   -5.7824    0.1495   -4.1490 C   0  0  2  0  0  4           0  0  0
   -2.1122   -0.0000    1.4247 C   0  0  1  0  0  4           0  0  0
    0.0000   -0.0000    0.0000 C   0  0  0  0  0  4           0  0  0
    2.0664    1.1589    0.6691 C   0  0  0  0  0  4           0  0  0
    2.0437   -1.2678    0.4599 C   0  0  0  0  0  4           0  0  0
   -0.5790   -0.0000    1.4137 C   0  0  0  0  0  4           0  0  0
    1.6580    2.4789    0.0175 C   0  0  0  0  0  4           0  0  0
    1.6215   -2.4470   -0.4146 C   0  0  0  0  0  4           0  0  0
    2.2768    3.6919    0.7069 C   0  0  0  0  0  4           0  0  0
    2.0510   -2.2839   -1.8701 C   0  0  0  0  0  4           0  0  0
    1.8544    4.9914    0.0391 C   0  0  0  0  0  4           0  0  0
    1.6186   -3.4703   -2.7177 C   0  0  0  0  0  4           0  0  0
  1  8  1  0     0  0
  2  9  1  0     0  0
  3 22  1  0     0  0
  4 22  1  0     0  0
  5 22  1  0     0  0
  6 23  1  0     0  0
  7 24  1  0     0  0
  7 25  1  0     0  0
  7 26  1  0     0  0
  8 10  2  0     0  0
  8 16  1  0     0  0
  9 16  2  0     0  0
  9 17  1  0     0  0
 10 11  1  0     0  0
 10 18  1  0     0  0
 11 12  1  0     0  0
 11 17  2  0     0  0
 12 13  1  0     0  0
 12 19  2  0     0  0
 13 14  1  0     0  0
 13 20  2  0     0  0
 14 18  2  0     0  0
 14 23  1  0     0  0
 15 19  1  0     0  0
 15 21  2  0     0  0
 15 22  1  0     0  0
 20 21  1  0     0  0
 23 27  1  0     0  0
 24 27  1  0     0  0
 25 28  1  0     0  0
 26 29  1  0     0  0
 28 30  1  0     0  0
 29 31  1  0     0  0
 30 32  1  0     0  0
 31 33  1  0     0  0
M  END
> <standard_type>
pIC50

> <# Confs.>
25

> <canonical_smiles>
OC(C1=CC2=C(C=C(C=C2C3=CC(C(F)(F)F)=CC=C13)Cl)Cl)CCN(CCCC)CCCC

> <standard_relation>
=

> <Publication_ID>
nan

> <predicted_activity_value>
nan

> <actual_activity_value>
0.7055337738384071

> <Compound>
Halofantrine 

> <standard_units>
uM

> hash
18287317948981362988

$$$$
24
XXILIB    08252103503D 0   0.00000     0.00000

 33 35  0     1  0            999 V2000
   -0.3951   -2.0044    6.0459 Cl  0  0  0  0  0  1           0  0  0
   -4.0656   -0.1740    9.4631 Cl  0  0  0  0  0  1           0  0  0
   -7.8489    3.1515    5.0993 F   0  0  0  0  0  1           0  0  0
   -7.4248    4.4127    3.3796 F   0  0  0  0  0  1           0  0  0
   -8.6274    2.6216    3.1393 F   0  0  0  0  0  1           0  0  0
   -2.6158   -1.1589    0.7592 O   0  0  0  0  0  2           0  0  0
    1.4670   -0.0000    0.0000 N   0  0  1  0  0  3           0  0  0
   -1.8471   -1.0796    6.2814 C   0  0  0  0  0  4           0  0  0
   -3.4676   -0.2816    7.8510 C   0  0  0  0  0  4           0  0  0
   -2.5203   -0.4329    5.2065 C   0  0  0  0  0  4           0  0  0
   -3.7021    0.3086    5.4637 C   0  0  0  0  0  4           0  0  0
   -4.3972    0.9566    4.3766 C   0  0  0  0  0  4           0  0  0
   -3.8964    0.8563    3.0477 C   0  0  0  0  0  4           0  0  0
   -2.6997    0.1375    2.8054 C   0  0  0  0  0  4           0  0  0
   -6.2908    2.3182    3.5138 C   0  0  0  0  0  4           0  0  0
   -2.3181   -1.0044    7.5918 C   0  0  0  0  0  4           0  0  0
   -4.1452    0.3604    6.8128 C   0  0  0  0  0  4           0  0  0
   -2.0554   -0.4988    3.8796 C   0  0  0  0  0  4           0  0  0
   -5.5914    1.7079    4.5628 C   0  0  0  0  0  4           0  0  0
   -4.6193    1.4814    2.0021 C   0  0  0  0  0  4           0  0  0
   -5.7900    2.2021    2.2278 C   0  0  0  0  0  4           0  0  0
   -7.5281    3.1136    3.7767 C   0  0  2  0  0  4           0  0  0
   -2.1122   -0.0000    1.4247 C   0  0  1  0  0  4           0  0  0
    0.0000    0.0000   -0.0000 C   0  0  0  0  0  4           0  0  0
    2.0664   -1.1589    0.6691 C   0  0  0  0  0  4           0  0  0
    2.0437    0.2356   -1.3279 C   0  0  0  0  0  4           0  0  0
   -0.5790    0.0000    1.4137 C   0  0  0  0  0  4           0  0  0
    1.6580   -2.4789    0.0175 C   0  0  0  0  0  4           0  0  0
    1.6215    1.5826   -1.9119 C   0  0  0  0  0  4           0  0  0
    2.2768   -3.6919    0.7069 C   0  0  0  0  0  4           0  0  0
    2.2165    1.8374   -3.2941 C   0  0  0  0  0  4           0  0  0
    1.8544   -4.9914    0.0391 C   0  0  0  0  0  4           0  0  0
    1.7807    3.1836   -3.8517 C   0  0  0  0  0  4           0  0  0
  1  8  1  0     0  0
  2  9  1  0     0  0
  3 22  1  0     0  0
  4 22  1  0     0  0
  5 22  1  0     0  0
  6 23  1  0     0  0
  7 24  1  0     0  0
  7 25  1  0     0  0
  7 26  1  0     0  0
  8 10  2  0     0  0
  8 16  1  0     0  0
  9 16  2  0     0  0
  9 17  1  0     0  0
 10 11  1  0     0  0
 10 18  1  0     0  0
 11 12  1  0     0  0
 11 17  2  0     0  0
 12 13  1  0     0  0
 12 19  2  0     0  0
 13 14  1  0     0  0
 13 20  2  0     0  0
 14 18  2  0     0  0
 14 23  1  0     0  0
 15 19  1  0     0  0
 15 21  2  0     0  0
 15 22  1  0     0  0
 20 21  1  0     0  0
 23 27  1  0     0  0
 24 27  1  0     0  0
 25 28  1  0     0  0
 26 29  1  0     0  0
 28 30  1  0     0  0
 29 31  1  0     0  0
 30 32  1  0     0  0
 31 33  1  0     0  0
M  END
> <standard_type>
pIC50

> <# Confs.>
25

> <canonical_smiles>
OC(C1=CC2=C(C=C(C=C2C3=CC(C(F)(F)F)=CC=C13)Cl)Cl)CCN(CCCC)CCCC

> <standard_relation>
=

> <Publication_ID>
nan

> <predicted_activity_value>
nan

> <actual_activity_value>
0.7055337738384071

> <Compound>
Halofantrine 

> <standard_units>
uM

> hash
18287317948981362988

$$$$
24
XXILIB    08252103503D 0   0.00000     0.00000

 33 35  0     1  0            999 V2000
   -1.9542    5.2471    2.2996 Cl  0  0  0  0  0  1           0  0  0
   -4.7539    7.1303   -1.8375 Cl  0  0  0  0  0  1           0  0  0
   -6.1869    1.3060   -4.7427 F   0  0  0  0  0  1           0  0  0
   -5.0706   -0.5266   -5.0936 F   0  0  0  0  0  1           0  0  0
   -6.9136   -0.5831   -3.9481 F   0  0  0  0  0  1           0  0  0
   -2.6013   -0.0000    2.7664 O   0  0  0  0  0  2           0  0  0
    1.4670    0.0000    0.0000 N   0  0  1  0  0  3           0  0  0
   -2.8574    4.8936    0.8579 C   0  0  0  0  0  4           0  0  0
   -4.1042    5.7848   -0.9799 C   0  0  0  0  0  4           0  0  0
   -3.0571    3.5632    0.3919 C   0  0  0  0  0  4           0  0  0
   -3.8040    3.3399   -0.7933 C   0  0  0  0  0  4           0  0  0
   -4.0214    1.9925   -1.2650 C   0  0  0  0  0  4           0  0  0
   -3.4841    0.8881   -0.5451 C   0  0  0  0  0  4           0  0  0
   -2.7154    1.1233    0.6217 C   0  0  0  0  0  4           0  0  0
   -5.0096    0.3941   -2.8937 C   0  0  0  0  0  4           0  0  0
   -3.3776    5.9939    0.1773 C   0  0  0  0  0  4           0  0  0
   -4.3138    4.4890   -1.4556 C   0  0  0  0  0  4           0  0  0
   -2.5366    2.4436    1.0676 C   0  0  0  0  0  4           0  0  0
   -4.7677    1.6972   -2.4402 C   0  0  0  0  0  4           0  0  0
   -3.7407   -0.4209   -1.0216 C   0  0  0  0  0  4           0  0  0
   -4.4837   -0.6660   -2.1743 C   0  0  0  0  0  4           0  0  0
   -5.7824    0.1495   -4.1490 C   0  0  2  0  0  4           0  0  0
   -2.1122   -0.0000    1.4247 C   0  0  1  0  0  4           0  0  0
    0.0000   -0.0000    0.0000 C   0  0  0  0  0  4           0  0  0
    2.0664    1.1589    0.6691 C   0  0  0  0  0  4           0  0  0
    2.0437   -1.2678    0.4599 C   0  0  0  0  0  4           0  0  0
   -0.5790   -0.0000    1.4137 C   0  0  0  0  0  4           0  0  0
    1.6580    2.4789    0.0175 C   0  0  0  0  0  4           0  0  0
    1.6215   -2.4470   -0.4146 C   0  0  0  0  0  4           0  0  0
    2.2768    3.6919    0.7069 C   0  0  0  0  0  4           0  0  0
    2.2165   -3.7715    0.0558 C   0  0  0  0  0  4           0  0  0
    1.8544    4.9914    0.0391 C   0  0  0  0  0  4           0  0  0
    1.7807   -4.9275   -0.8312 C   0  0  0  0  0  4           0  0  0
  1  8  1  0     0  0
  2  9  1  0     0  0
  3 22  1  0     0  0
  4 22  1  0     0  0
  5 22  1  0     0  0
  6 23  1  0     0  0
  7 24  1  0     0  0
  7 25  1  0     0  0
  7 26  1  0     0  0
  8 10  2  0     0  0
  8 16  1  0     0  0
  9 16  2  0     0  0
  9 17  1  0     0  0
 10 11  1  0     0  0
 10 18  1  0     0  0
 11 12  1  0     0  0
 11 17  2  0     0  0
 12 13  1  0     0  0
 12 19  2  0     0  0
 13 14  1  0     0  0
 13 20  2  0     0  0
 14 18  2  0     0  0
 14 23  1  0     0  0
 15 19  1  0     0  0
 15 21  2  0     0  0
 15 22  1  0     0  0
 20 21  1  0     0  0
 23 27  1  0     0  0
 24 27  1  0     0  0
 25 28  1  0     0  0
 26 29  1  0     0  0
 28 30  1  0     0  0
 29 31  1  0     0  0
 30 32  1  0     0  0
 31 33  1  0     0  0
M  END
> <standard_type>
pIC50

> <# Confs.>
25

> <canonical_smiles>
OC(C1=CC2=C(C=C(C=C2C3=CC(C(F)(F)F)=CC=C13)Cl)Cl)CCN(CCCC)CCCC

> <standard_relation>
=

> <Publication_ID>
nan

> <predicted_activity_value>
nan

> <actual_activity_value>
0.7055337738384071

> <Compound>
Halofantrine 

> <standard_units>
uM

> hash
18287317948981362988

$$$$
24
XXILIB    08252103503D 0   0.00000     0.00000

 33 35  0     1  0            999 V2000
   -3.8688   -3.7710    4.7438 Cl  0  0  0  0  0  1           0  0  0
   -5.4435   -0.8810    8.9472 Cl  0  0  0  0  0  1           0  0  0
   -3.9185    5.1562    6.5721 F   0  0  0  0  0  1           0  0  0
   -2.2527    5.9567    5.4266 F   0  0  0  0  0  1           0  0  0
   -4.2731    6.1006    4.6457 F   0  0  0  0  0  1           0  0  0
   -2.6158   -1.1589    0.7592 O   0  0  0  0  0  2           0  0  0
    1.4670   -0.0000    0.0000 N   0  0  1  0  0  3           0  0  0
   -4.0483   -2.1962    5.4560 C   0  0  0  0  0  4           0  0  0
   -4.7672   -0.9435    7.3640 C   0  0  0  0  0  4           0  0  0
   -3.6574   -1.0060    4.7797 C   0  0  0  0  0  4           0  0  0
   -3.8293    0.2505    5.4154 C   0  0  0  0  0  4           0  0  0
   -3.4468    1.4629    4.7305 C   0  0  0  0  0  4           0  0  0
   -2.8938    1.3992    3.4203 C   0  0  0  0  0  4           0  0  0
   -2.6997    0.1375    2.8054 C   0  0  0  0  0  4           0  0  0
   -3.2590    3.9410    4.6422 C   0  0  0  0  0  4           0  0  0
   -4.5990   -2.1639    6.7367 C   0  0  0  0  0  4           0  0  0
   -4.3919    0.2371    6.7201 C   0  0  0  0  0  4           0  0  0
   -3.0990   -1.0238    3.4879 C   0  0  0  0  0  4           0  0  0
   -3.5999    2.7555    5.3059 C   0  0  0  0  0  4           0  0  0
   -2.5558    2.6102    2.7677 C   0  0  0  0  0  4           0  0  0
   -2.7293    3.8566    3.3654 C   0  0  0  0  0  4           0  0  0
   -3.4224    5.2682    5.3092 C   0  0  2  0  0  4           0  0  0
   -2.1122   -0.0000    1.4247 C   0  0  1  0  0  4           0  0  0
    0.0000    0.0000   -0.0000 C   0  0  0  0  0  4           0  0  0
    2.0664    1.1589    0.6691 C   0  0  0  0  0  4           0  0  0
    2.0437   -1.2678    0.4599 C   0  0  0  0  0  4           0  0  0
   -0.5790    0.0000    1.4137 C   0  0  0  0  0  4           0  0  0
    1.6580    2.4789    0.0175 C   0  0  0  0  0  4           0  0  0
    1.6215   -2.4470   -0.4146 C   0  0  0  0  0  4           0  0  0
    2.2768    3.6919    0.7069 C   0  0  0  0  0  4           0  0  0
    2.0510   -2.2839   -1.8701 C   0  0  0  0  0  4           0  0  0
    1.8544    4.9914    0.0391 C   0  0  0  0  0  4           0  0  0
    1.6186   -3.4703   -2.7177 C   0  0  0  0  0  4           0  0  0
  1  8  1  0     0  0
  2  9  1  0     0  0
  3 22  1  0     0  0
  4 22  1  0     0  0
  5 22  1  0     0  0
  6 23  1  0     0  0
  7 24  1  0     0  0
  7 25  1  0     0  0
  7 26  1  0     0  0
  8 10  2  0     0  0
  8 16  1  0     0  0
  9 16  2  0     0  0
  9 17  1  0     0  0
 10 11  1  0     0  0
 10 18  1  0     0  0
 11 12  1  0     0  0
 11 17  2  0     0  0
 12 13  1  0     0  0
 12 19  2  0     0  0
 13 14  1  0     0  0
 13 20  2  0     0  0
 14 18  2  0     0  0
 14 23  1  0     0  0
 15 19  1  0     0  0
 15 21  2  0     0  0
 15 22  1  0     0  0
 20 21  1  0     0  0
 23 27  1  0     0  0
 24 27  1  0     0  0
 25 28  1  0     0  0
 26 29  1  0     0  0
 28 30  1  0     0  0
 29 31  1  0     0  0
 30 32  1  0     0  0
 31 33  1  0     0  0
M  END
> <standard_type>
pIC50

> <# Confs.>
25

> <canonical_smiles>
OC(C1=CC2=C(C=C(C=C2C3=CC(C(F)(F)F)=CC=C13)Cl)Cl)CCN(CCCC)CCCC

> <standard_relation>
=

> <Publication_ID>
nan

> <predicted_activity_value>
nan

> <actual_activity_value>
0.7055337738384071

> <Compound>
Halofantrine 

> <standard_units>
uM

> hash
18287317948981362988

$$$$
24
XXILIB    08252103503D 0   0.00000     0.00000

 33 35  0     1  0            999 V2000
    0.3274   -0.0069    6.1544 Cl  0  0  0  0  0  1           0  0  0
   -3.7812    0.6205    9.5050 Cl  0  0  0  0  0  1           0  0  0
   -8.6644    0.8893    4.9776 F   0  0  0  0  0  1           0  0  0
   -8.8684    1.8207    3.0235 F   0  0  0  0  0  1           0  0  0
   -9.1047   -0.3272    3.2299 F   0  0  0  0  0  1           0  0  0
   -2.6158   -1.1589    0.7592 O   0  0  0  0  0  2           0  0  0
    1.4670   -0.0000   -0.0000 N   0  0  1  0  0  3           0  0  0
   -1.3883    0.1853    6.3507 C   0  0  0  0  0  4           0  0  0
   -3.1977    0.4661    7.8915 C   0  0  0  0  0  4           0  0  0
   -2.2820    0.2192    5.2429 C   0  0  0  0  0  4           0  0  0
   -3.6733    0.3794    5.4689 C   0  0  0  0  0  4           0  0  0
   -4.5870    0.4020    4.3510 C   0  0  0  0  0  4           0  0  0
   -4.0938    0.2682    3.0223 C   0  0  0  0  0  4           0  0  0
   -2.6997    0.1375    2.8054 C   0  0  0  0  0  4           0  0  0
   -6.8939    0.5463    3.4336 C   0  0  0  0  0  4           0  0  0
   -1.8436    0.3070    7.6631 C   0  0  0  0  0  4           0  0  0
   -4.0931    0.5015    6.8209 C   0  0  0  0  0  4           0  0  0
   -1.8364    0.0993    3.9132 C   0  0  0  0  0  4           0  0  0
   -5.9938    0.5504    4.5069 C   0  0  0  0  0  4           0  0  0
   -5.0215    0.2669    1.9519 C   0  0  0  0  0  4           0  0  0
   -6.3934    0.4076    2.1498 C   0  0  0  0  0  4           0  0  0
   -8.3595    0.7292    3.6604 C   0  0  2  0  0  4           0  0  0
   -2.1122   -0.0000    1.4247 C   0  0  1  0  0  4           0  0  0
    0.0000    0.0000    0.0000 C   0  0  0  0  0  4           0  0  0
    2.0664   -1.1589    0.6691 C   0  0  0  0  0  4           0  0  0
    2.0437    0.2356   -1.3279 C   0  0  0  0  0  4           0  0  0
   -0.5790   -0.0000    1.4137 C   0  0  0  0  0  4           0  0  0
    1.6580   -2.4789    0.0175 C   0  0  0  0  0  4           0  0  0
    1.6215    1.5826   -1.9119 C   0  0  0  0  0  4           0  0  0
    2.2768   -3.6919    0.7069 C   0  0  0  0  0  4           0  0  0
    2.0510    2.7615   -1.0429 C   0  0  0  0  0  4           0  0  0
    1.8544   -4.9914    0.0391 C   0  0  0  0  0  4           0  0  0
    1.6186    4.0888   -1.6466 C   0  0  0  0  0  4           0  0  0
  1  8  1  0     0  0
  2  9  1  0     0  0
  3 22  1  0     0  0
  4 22  1  0     0  0
  5 22  1  0     0  0
  6 23  1  0     0  0
  7 24  1  0     0  0
  7 25  1  0     0  0
  7 26  1  0     0  0
  8 10  2  0     0  0
  8 16  1  0     0  0
  9 16  2  0     0  0
  9 17  1  0     0  0
 10 11  1  0     0  0
 10 18  1  0     0  0
 11 12  1  0     0  0
 11 17  2  0     0  0
 12 13  1  0     0  0
 12 19  2  0     0  0
 13 14  1  0     0  0
 13 20  2  0     0  0
 14 18  2  0     0  0
 14 23  1  0     0  0
 15 19  1  0     0  0
 15 21  2  0     0  0
 15 22  1  0     0  0
 20 21  1  0     0  0
 23 27  1  0     0  0
 24 27  1  0     0  0
 25 28  1  0     0  0
 26 29  1  0     0  0
 28 30  1  0     0  0
 29 31  1  0     0  0
 30 32  1  0     0  0
 31 33  1  0     0  0
M  END
> <standard_type>
pIC50

> <# Confs.>
25

> <canonical_smiles>
OC(C1=CC2=C(C=C(C=C2C3=CC(C(F)(F)F)=CC=C13)Cl)Cl)CCN(CCCC)CCCC

> <standard_relation>
=

> <Publication_ID>
nan

> <predicted_activity_value>
nan

> <actual_activity_value>
0.7055337738384071

> <Compound>
Halofantrine 

> <standard_units>
uM

> hash
18287317948981362988

$$$$
24
XXILIB    08252103503D 0   0.00000     0.00000

 33 35  0     1  0            999 V2000
   -1.9542    5.2471    2.2996 Cl  0  0  0  0  0  1           0  0  0
   -4.7539    7.1303   -1.8375 Cl  0  0  0  0  0  1           0  0  0
   -6.1869    1.3060   -4.7427 F   0  0  0  0  0  1           0  0  0
   -5.0706   -0.5266   -5.0936 F   0  0  0  0  0  1           0  0  0
   -6.9136   -0.5831   -3.9481 F   0  0  0  0  0  1           0  0  0
   -2.6013   -0.0000    2.7664 O   0  0  0  0  0  2           0  0  0
    1.4670    0.0000   -0.0000 N   0  0  1  0  0  3           0  0  0
   -2.8574    4.8936    0.8579 C   0  0  0  0  0  4           0  0  0
   -4.1042    5.7848   -0.9799 C   0  0  0  0  0  4           0  0  0
   -3.0571    3.5632    0.3919 C   0  0  0  0  0  4           0  0  0
   -3.8040    3.3399   -0.7933 C   0  0  0  0  0  4           0  0  0
   -4.0214    1.9925   -1.2650 C   0  0  0  0  0  4           0  0  0
   -3.4841    0.8881   -0.5451 C   0  0  0  0  0  4           0  0  0
   -2.7154    1.1233    0.6217 C   0  0  0  0  0  4           0  0  0
   -5.0096    0.3941   -2.8937 C   0  0  0  0  0  4           0  0  0
   -3.3776    5.9939    0.1773 C   0  0  0  0  0  4           0  0  0
   -4.3138    4.4890   -1.4556 C   0  0  0  0  0  4           0  0  0
   -2.5366    2.4436    1.0676 C   0  0  0  0  0  4           0  0  0
   -4.7677    1.6972   -2.4402 C   0  0  0  0  0  4           0  0  0
   -3.7407   -0.4209   -1.0216 C   0  0  0  0  0  4           0  0  0
   -4.4837   -0.6660   -2.1743 C   0  0  0  0  0  4           0  0  0
   -5.7824    0.1495   -4.1490 C   0  0  2  0  0  4           0  0  0
   -2.1122   -0.0000    1.4247 C   0  0  1  0  0  4           0  0  0
    0.0000   -0.0000    0.0000 C   0  0  0  0  0  4           0  0  0
    2.0664    1.1589    0.6691 C   0  0  0  0  0  4           0  0  0
    2.0437   -1.2678    0.4599 C   0  0  0  0  0  4           0  0  0
   -0.5790   -0.0000    1.4137 C   0  0  0  0  0  4           0  0  0
    1.6580    2.4789    0.0175 C   0  0  0  0  0  4           0  0  0
    1.6215   -2.4470   -0.4146 C   0  0  0  0  0  4           0  0  0
    2.0764    2.5663   -1.4477 C   0  0  0  0  0  4           0  0  0
    2.0510   -2.2839   -1.8701 C   0  0  0  0  0  4           0  0  0
    1.6581    3.8888   -2.0714 C   0  0  0  0  0  4           0  0  0
    1.6186   -3.4703   -2.7177 C   0  0  0  0  0  4           0  0  0
  1  8  1  0     0  0
  2  9  1  0     0  0
  3 22  1  0     0  0
  4 22  1  0     0  0
  5 22  1  0     0  0
  6 23  1  0     0  0
  7 24  1  0     0  0
  7 25  1  0     0  0
  7 26  1  0     0  0
  8 10  2  0     0  0
  8 16  1  0     0  0
  9 16  2  0     0  0
  9 17  1  0     0  0
 10 11  1  0     0  0
 10 18  1  0     0  0
 11 12  1  0     0  0
 11 17  2  0     0  0
 12 13  1  0     0  0
 12 19  2  0     0  0
 13 14  1  0     0  0
 13 20  2  0     0  0
 14 18  2  0     0  0
 14 23  1  0     0  0
 15 19  1  0     0  0
 15 21  2  0     0  0
 15 22  1  0     0  0
 20 21  1  0     0  0
 23 27  1  0     0  0
 24 27  1  0     0  0
 25 28  1  0     0  0
 26 29  1  0     0  0
 28 30  1  0     0  0
 29 31  1  0     0  0
 30 32  1  0     0  0
 31 33  1  0     0  0
M  END
> <standard_type>
pIC50

> <# Confs.>
25

> <canonical_smiles>
OC(C1=CC2=C(C=C(C=C2C3=CC(C(F)(F)F)=CC=C13)Cl)Cl)CCN(CCCC)CCCC

> <standard_relation>
=

> <Publication_ID>
nan

> <predicted_activity_value>
nan

> <actual_activity_value>
0.7055337738384071

> <Compound>
Halofantrine 

> <standard_units>
uM

> hash
18287317948981362988

$$$$
24
XXILIB    08252103503D 0   0.00000     0.00000

 33 35  0     1  0            999 V2000
   -0.4326    5.0149    0.8318 Cl  0  0  0  0  0  1           0  0  0
   -4.1512    7.0361   -2.4221 Cl  0  0  0  0  0  1           0  0  0
   -7.9078    1.5707   -3.0796 F   0  0  0  0  0  1           0  0  0
   -7.4730   -0.5465   -3.3167 F   0  0  0  0  0  1           0  0  0
   -8.6618    0.1335   -1.6325 F   0  0  0  0  0  1           0  0  0
   -2.6013   -0.0000    2.7664 O   0  0  0  0  0  2           0  0  0
    1.4670   -0.0000    0.0000 N   0  0  1  0  0  3           0  0  0
   -1.8928    4.7474   -0.0713 C   0  0  0  0  0  4           0  0  0
   -3.5351    5.6976   -1.5295 C   0  0  0  0  0  4           0  0  0
   -2.5583    3.4889   -0.0866 C   0  0  0  0  0  4           0  0  0
   -3.7475    3.3336   -0.8446 C   0  0  0  0  0  4           0  0  0
   -4.4348    2.0638   -0.8547 C   0  0  0  0  0  4           0  0  0
   -3.9191    0.9662   -0.1090 C   0  0  0  0  0  4           0  0  0
   -2.7154    1.1233    0.6217 C   0  0  0  0  0  4           0  0  0
   -6.3275    0.6240   -1.5821 C   0  0  0  0  0  4           0  0  0
   -2.3784    5.8417   -0.7863 C   0  0  0  0  0  4           0  0  0
   -4.2054    4.4732   -1.5591 C   0  0  0  0  0  4           0  0  0
   -2.0788    2.3757    0.6288 C   0  0  0  0  0  4           0  0  0
   -5.6357    1.8420   -1.5856 C   0  0  0  0  0  4           0  0  0
   -4.6345   -0.2562   -0.1198 C   0  0  0  0  0  4           0  0  0
   -5.8121   -0.4284   -0.8441 C   0  0  0  0  0  4           0  0  0
   -7.5725    0.4463   -2.3891 C   0  0  2  0  0  4           0  0  0
   -2.1122   -0.0000    1.4247 C   0  0  1  0  0  4           0  0  0
    0.0000    0.0000    0.0000 C   0  0  0  0  0  4           0  0  0
    2.0664   -1.1589    0.6691 C   0  0  0  0  0  4           0  0  0
    2.0437    0.2356   -1.3279 C   0  0  0  0  0  4           0  0  0
   -0.5790   -0.0000    1.4137 C   0  0  0  0  0  4           0  0  0
    1.6580   -2.4789    0.0175 C   0  0  0  0  0  4           0  0  0
    1.6215    1.5826   -1.9119 C   0  0  0  0  0  4           0  0  0
    2.2768   -3.6919    0.7069 C   0  0  0  0  0  4           0  0  0
    2.2165    1.8374   -3.2941 C   0  0  0  0  0  4           0  0  0
    1.8544   -4.9914    0.0391 C   0  0  0  0  0  4           0  0  0
    1.7807    3.1836   -3.8517 C   0  0  0  0  0  4           0  0  0
  1  8  1  0     0  0
  2  9  1  0     0  0
  3 22  1  0     0  0
  4 22  1  0     0  0
  5 22  1  0     0  0
  6 23  1  0     0  0
  7 24  1  0     0  0
  7 25  1  0     0  0
  7 26  1  0     0  0
  8 10  2  0     0  0
  8 16  1  0     0  0
  9 16  2  0     0  0
  9 17  1  0     0  0
 10 11  1  0     0  0
 10 18  1  0     0  0
 11 12  1  0     0  0
 11 17  2  0     0  0
 12 13  1  0     0  0
 12 19  2  0     0  0
 13 14  1  0     0  0
 13 20  2  0     0  0
 14 18  2  0     0  0
 14 23  1  0     0  0
 15 19  1  0     0  0
 15 21  2  0     0  0
 15 22  1  0     0  0
 20 21  1  0     0  0
 23 27  1  0     0  0
 24 27  1  0     0  0
 25 28  1  0     0  0
 26 29  1  0     0  0
 28 30  1  0     0  0
 29 31  1  0     0  0
 30 32  1  0     0  0
 31 33  1  0     0  0
M  END
> <standard_type>
pIC50

> <# Confs.>
25

> <canonical_smiles>
OC(C1=CC2=C(C=C(C=C2C3=CC(C(F)(F)F)=CC=C13)Cl)Cl)CCN(CCCC)CCCC

> <standard_relation>
=

> <Publication_ID>
nan

> <predicted_activity_value>
nan

> <actual_activity_value>
0.7055337738384071

> <Compound>
Halofantrine 

> <standard_units>
uM

> hash
18287317948981362988

$$$$
24
XXILIB    08252103503D 0   0.00000     0.00000

 33 35  0     1  0            999 V2000
   -3.8688   -3.7710    4.7438 Cl  0  0  0  0  0  1           0  0  0
   -5.4435   -0.8810    8.9472 Cl  0  0  0  0  0  1           0  0  0
   -3.9185    5.1562    6.5721 F   0  0  0  0  0  1           0  0  0
   -2.2527    5.9567    5.4266 F   0  0  0  0  0  1           0  0  0
   -4.2731    6.1006    4.6457 F   0  0  0  0  0  1           0  0  0
   -2.6158   -1.1589    0.7592 O   0  0  0  0  0  2           0  0  0
    1.4670    0.0000    0.0000 N   0  0  1  0  0  3           0  0  0
   -4.0483   -2.1962    5.4560 C   0  0  0  0  0  4           0  0  0
   -4.7672   -0.9435    7.3640 C   0  0  0  0  0  4           0  0  0
   -3.6574   -1.0060    4.7797 C   0  0  0  0  0  4           0  0  0
   -3.8293    0.2505    5.4154 C   0  0  0  0  0  4           0  0  0
   -3.4468    1.4629    4.7305 C   0  0  0  0  0  4           0  0  0
   -2.8938    1.3992    3.4203 C   0  0  0  0  0  4           0  0  0
   -2.6997    0.1375    2.8054 C   0  0  0  0  0  4           0  0  0
   -3.2590    3.9410    4.6422 C   0  0  0  0  0  4           0  0  0
   -4.5990   -2.1639    6.7367 C   0  0  0  0  0  4           0  0  0
   -4.3919    0.2371    6.7201 C   0  0  0  0  0  4           0  0  0
   -3.0990   -1.0238    3.4879 C   0  0  0  0  0  4           0  0  0
   -3.5999    2.7555    5.3059 C   0  0  0  0  0  4           0  0  0
   -2.5558    2.6102    2.7677 C   0  0  0  0  0  4           0  0  0
   -2.7293    3.8566    3.3654 C   0  0  0  0  0  4           0  0  0
   -3.4224    5.2682    5.3092 C   0  0  2  0  0  4           0  0  0
   -2.1122   -0.0000    1.4247 C   0  0  1  0  0  4           0  0  0
    0.0000    0.0000   -0.0000 C   0  0  0  0  0  4           0  0  0
    2.0664    1.1589    0.6691 C   0  0  0  0  0  4           0  0  0
    2.0437   -1.2678    0.4599 C   0  0  0  0  0  4           0  0  0
   -0.5790    0.0000    1.4137 C   0  0  0  0  0  4           0  0  0
    1.6580    2.4789    0.0175 C   0  0  0  0  0  4           0  0  0
    1.6215   -2.4470   -0.4146 C   0  0  0  0  0  4           0  0  0
    2.2768    3.6919    0.7069 C   0  0  0  0  0  4           0  0  0
    2.2165   -3.7715    0.0558 C   0  0  0  0  0  4           0  0  0
    1.8544    4.9914    0.0391 C   0  0  0  0  0  4           0  0  0
    1.7807   -4.9275   -0.8312 C   0  0  0  0  0  4           0  0  0
  1  8  1  0     0  0
  2  9  1  0     0  0
  3 22  1  0     0  0
  4 22  1  0     0  0
  5 22  1  0     0  0
  6 23  1  0     0  0
  7 24  1  0     0  0
  7 25  1  0     0  0
  7 26  1  0     0  0
  8 10  2  0     0  0
  8 16  1  0     0  0
  9 16  2  0     0  0
  9 17  1  0     0  0
 10 11  1  0     0  0
 10 18  1  0     0  0
 11 12  1  0     0  0
 11 17  2  0     0  0
 12 13  1  0     0  0
 12 19  2  0     0  0
 13 14  1  0     0  0
 13 20  2  0     0  0
 14 18  2  0     0  0
 14 23  1  0     0  0
 15 19  1  0     0  0
 15 21  2  0     0  0
 15 22  1  0     0  0
 20 21  1  0     0  0
 23 27  1  0     0  0
 24 27  1  0     0  0
 25 28  1  0     0  0
 26 29  1  0     0  0
 28 30  1  0     0  0
 29 31  1  0     0  0
 30 32  1  0     0  0
 31 33  1  0     0  0
M  END
> <standard_type>
pIC50

> <# Confs.>
25

> <canonical_smiles>
OC(C1=CC2=C(C=C(C=C2C3=CC(C(F)(F)F)=CC=C13)Cl)Cl)CCN(CCCC)CCCC

> <standard_relation>
=

> <Publication_ID>
nan

> <predicted_activity_value>
nan

> <actual_activity_value>
0.7055337738384071

> <Compound>
Halofantrine 

> <standard_units>
uM

> hash
18287317948981362988

$$$$
24
XXILIB    08252103503D 0   0.00000     0.00000

 33 35  0     1  0            999 V2000
   -1.9310   -3.3822    5.5296 Cl  0  0  0  0  0  1           0  0  0
   -4.6741   -0.7236    9.2589 Cl  0  0  0  0  0  1           0  0  0
   -6.1118    4.7133    5.6829 F   0  0  0  0  0  1           0  0  0
   -5.0033    5.9266    4.2592 F   0  0  0  0  0  1           0  0  0
   -6.8589    4.9743    3.6576 F   0  0  0  0  0  1           0  0  0
   -2.6158   -1.1589    0.7592 O   0  0  0  0  0  2           0  0  0
    1.4670   -0.0000   -0.0000 N   0  0  1  0  0  3           0  0  0
   -2.8207   -1.9513    5.9540 C   0  0  0  0  0  4           0  0  0
   -4.0421   -0.7976    7.6580 C   0  0  0  0  0  4           0  0  0
   -3.0237   -0.8813    5.0369 C   0  0  0  0  0  4           0  0  0
   -3.7591    0.2614    5.4441 C   0  0  0  0  0  4           0  0  0
   -3.9798    1.3449    4.5155 C   0  0  0  0  0  4           0  0  0
   -3.4572    1.2703    3.1934 C   0  0  0  0  0  4           0  0  0
   -2.6997    0.1375    2.8054 C   0  0  0  0  0  4           0  0  0
   -4.9603    3.5608    3.9562 C   0  0  0  0  0  4           0  0  0
   -3.3267   -1.9088    7.2527 C   0  0  0  0  0  4           0  0  0
   -4.2545    0.2636    6.7759 C   0  0  0  0  0  4           0  0  0
   -2.5175   -0.9099    3.7239 C   0  0  0  0  0  4           0  0  0
   -4.7152    2.5150    4.8553 C   0  0  0  0  0  4           0  0  0
   -3.7168    2.3391    2.3008 C   0  0  0  0  0  4           0  0  0
   -4.4488    3.4645    2.6728 C   0  0  0  0  0  4           0  0  0
   -5.7210    4.7750    4.3802 C   0  0  2  0  0  4           0  0  0
   -2.1122   -0.0000    1.4247 C   0  0  1  0  0  4           0  0  0
    0.0000    0.0000   -0.0000 C   0  0  0  0  0  4           0  0  0
    2.0664   -1.1589    0.6691 C   0  0  0  0  0  4           0  0  0
    2.0437    0.2356   -1.3279 C   0  0  0  0  0  4           0  0  0
   -0.5790    0.0000    1.4137 C   0  0  0  0  0  4           0  0  0
    1.6580   -2.4789    0.0175 C   0  0  0  0  0  4           0  0  0
    1.6215    1.5826   -1.9119 C   0  0  0  0  0  4           0  0  0
    2.2768   -3.6919    0.7069 C   0  0  0  0  0  4           0  0  0
    2.0510    2.7615   -1.0429 C   0  0  0  0  0  4           0  0  0
    1.8544   -4.9914    0.0391 C   0  0  0  0  0  4           0  0  0
    1.6186    4.0888   -1.6466 C   0  0  0  0  0  4           0  0  0
  1  8  1  0     0  0
  2  9  1  0     0  0
  3 22  1  0     0  0
  4 22  1  0     0  0
  5 22  1  0     0  0
  6 23  1  0     0  0
  7 24  1  0     0  0
  7 25  1  0     0  0
  7 26  1  0     0  0
  8 10  2  0     0  0
  8 16  1  0     0  0
  9 16  2  0     0  0
  9 17  1  0     0  0
 10 11  1  0     0  0
 10 18  1  0     0  0
 11 12  1  0     0  0
 11 17  2  0     0  0
 12 13  1  0     0  0
 12 19  2  0     0  0
 13 14  1  0     0  0
 13 20  2  0     0  0
 14 18  2  0     0  0
 14 23  1  0     0  0
 15 19  1  0     0  0
 15 21  2  0     0  0
 15 22  1  0     0  0
 20 21  1  0     0  0
 23 27  1  0     0  0
 24 27  1  0     0  0
 25 28  1  0     0  0
 26 29  1  0     0  0
 28 30  1  0     0  0
 29 31  1  0     0  0
 30 32  1  0     0  0
 31 33  1  0     0  0
M  END
> <standard_type>
pIC50

> <# Confs.>
25

> <canonical_smiles>
OC(C1=CC2=C(C=C(C=C2C3=CC(C(F)(F)F)=CC=C13)Cl)Cl)CCN(CCCC)CCCC

> <standard_relation>
=

> <Publication_ID>
nan

> <predicted_activity_value>
nan

> <actual_activity_value>
0.7055337738384071

> <Compound>
Halofantrine 

> <standard_units>
uM

> hash
18287317948981362988

$$$$
24
XXILIB    08252103503D 0   0.00000     0.00000

 33 35  0     1  0            999 V2000
   -3.8688   -3.7710    4.7438 Cl  0  0  0  0  0  1           0  0  0
   -5.4435   -0.8810    8.9472 Cl  0  0  0  0  0  1           0  0  0
   -3.9185    5.1562    6.5721 F   0  0  0  0  0  1           0  0  0
   -2.2527    5.9567    5.4266 F   0  0  0  0  0  1           0  0  0
   -4.2731    6.1006    4.6457 F   0  0  0  0  0  1           0  0  0
   -2.6158   -1.1589    0.7592 O   0  0  0  0  0  2           0  0  0
    1.4670    0.0000   -0.0000 N   0  0  1  0  0  3           0  0  0
   -4.0483   -2.1962    5.4560 C   0  0  0  0  0  4           0  0  0
   -4.7672   -0.9435    7.3640 C   0  0  0  0  0  4           0  0  0
   -3.6574   -1.0060    4.7797 C   0  0  0  0  0  4           0  0  0
   -3.8293    0.2505    5.4154 C   0  0  0  0  0  4           0  0  0
   -3.4468    1.4629    4.7305 C   0  0  0  0  0  4           0  0  0
   -2.8938    1.3992    3.4203 C   0  0  0  0  0  4           0  0  0
   -2.6997    0.1375    2.8054 C   0  0  0  0  0  4           0  0  0
   -3.2590    3.9410    4.6422 C   0  0  0  0  0  4           0  0  0
   -4.5990   -2.1639    6.7367 C   0  0  0  0  0  4           0  0  0
   -4.3919    0.2371    6.7201 C   0  0  0  0  0  4           0  0  0
   -3.0990   -1.0238    3.4879 C   0  0  0  0  0  4           0  0  0
   -3.5999    2.7555    5.3059 C   0  0  0  0  0  4           0  0  0
   -2.5558    2.6102    2.7677 C   0  0  0  0  0  4           0  0  0
   -2.7293    3.8566    3.3654 C   0  0  0  0  0  4           0  0  0
   -3.4224    5.2682    5.3092 C   0  0  2  0  0  4           0  0  0
   -2.1122   -0.0000    1.4247 C   0  0  1  0  0  4           0  0  0
    0.0000    0.0000   -0.0000 C   0  0  0  0  0  4           0  0  0
    2.0664    1.1589    0.6691 C   0  0  0  0  0  4           0  0  0
    2.0437   -1.2678    0.4599 C   0  0  0  0  0  4           0  0  0
   -0.5790    0.0000    1.4137 C   0  0  0  0  0  4           0  0  0
    1.6580    2.4789    0.0175 C   0  0  0  0  0  4           0  0  0
    1.6215   -2.4470   -0.4146 C   0  0  0  0  0  4           0  0  0
    2.0764    2.5663   -1.4477 C   0  0  0  0  0  4           0  0  0
    2.0510   -2.2839   -1.8701 C   0  0  0  0  0  4           0  0  0
    1.6581    3.8888   -2.0714 C   0  0  0  0  0  4           0  0  0
    1.6186   -3.4703   -2.7177 C   0  0  0  0  0  4           0  0  0
  1  8  1  0     0  0
  2  9  1  0     0  0
  3 22  1  0     0  0
  4 22  1  0     0  0
  5 22  1  0     0  0
  6 23  1  0     0  0
  7 24  1  0     0  0
  7 25  1  0     0  0
  7 26  1  0     0  0
  8 10  2  0     0  0
  8 16  1  0     0  0
  9 16  2  0     0  0
  9 17  1  0     0  0
 10 11  1  0     0  0
 10 18  1  0     0  0
 11 12  1  0     0  0
 11 17  2  0     0  0
 12 13  1  0     0  0
 12 19  2  0     0  0
 13 14  1  0     0  0
 13 20  2  0     0  0
 14 18  2  0     0  0
 14 23  1  0     0  0
 15 19  1  0     0  0
 15 21  2  0     0  0
 15 22  1  0     0  0
 20 21  1  0     0  0
 23 27  1  0     0  0
 24 27  1  0     0  0
 25 28  1  0     0  0
 26 29  1  0     0  0
 28 30  1  0     0  0
 29 31  1  0     0  0
 30 32  1  0     0  0
 31 33  1  0     0  0
M  END
> <standard_type>
pIC50

> <# Confs.>
25

> <canonical_smiles>
OC(C1=CC2=C(C=C(C=C2C3=CC(C(F)(F)F)=CC=C13)Cl)Cl)CCN(CCCC)CCCC

> <standard_relation>
=

> <Publication_ID>
nan

> <predicted_activity_value>
nan

> <actual_activity_value>
0.7055337738384071

> <Compound>
Halofantrine 

> <standard_units>
uM

> hash
18287317948981362988

$$$$
24
XXILIB    08252103503D 0   0.00000     0.00000

 33 35  0     1  0            999 V2000
   -3.9280   -0.9779   -3.4813 Cl  0  0  0  0  0  1           0  0  0
   -5.5299   -6.0532   -3.0630 Cl  0  0  0  0  0  1           0  0  0
   -3.9418   -7.0245    3.3362 F   0  0  0  0  0  1           0  0  0
   -2.2588   -6.4432    4.5841 F   0  0  0  0  0  1           0  0  0
   -4.2696   -5.8262    5.1209 F   0  0  0  0  0  1           0  0  0
   -2.6158    1.1589    0.7592 O   0  0  0  0  0  2           0  0  0
    1.4670   -0.0000   -0.0000 N   0  0  1  0  0  3           0  0  0
   -4.1054   -2.3809   -2.4717 C   0  0  0  0  0  4           0  0  0
   -4.8370   -4.6551   -2.3329 C   0  0  0  0  0  4           0  0  0
   -3.6998   -2.3928   -1.1071 C   0  0  0  0  0  4           0  0  0
   -3.8706   -3.5705   -0.3348 C   0  0  0  0  0  4           0  0  0
   -3.4733   -3.5860    1.0533 C   0  0  0  0  0  4           0  0  0
   -2.9065   -2.4229    1.6472 C   0  0  0  0  0  4           0  0  0
   -2.7137   -1.2608    0.8598 C   0  0  0  0  0  4           0  0  0
   -3.2691   -4.7498    3.2415 C   0  0  0  0  0  4           0  0  0
   -4.6696   -3.5028   -3.0780 C   0  0  0  0  0  4           0  0  0
   -4.4474   -4.6902   -0.9927 C   0  0  0  0  0  4           0  0  0
   -3.1275   -1.2686   -0.4827 C   0  0  0  0  0  4           0  0  0
   -3.6245   -4.7296    1.8867 C   0  0  0  0  0  4           0  0  0
   -2.5540   -2.4654    3.0185 C   0  0  0  0  0  4           0  0  0
   -2.7261   -3.6051    3.8010 C   0  0  0  0  0  4           0  0  0
   -3.4314   -5.9899    4.0591 C   0  0  2  0  0  4           0  0  0
   -2.1122    0.0000    1.4247 C   0  0  1  0  0  4           0  0  0
    0.0000    0.0000    0.0000 C   0  0  0  0  0  4           0  0  0
    2.0664   -1.1589    0.6691 C   0  0  0  0  0  4           0  0  0
    2.0437    0.2356   -1.3279 C   0  0  0  0  0  4           0  0  0
   -0.5790    0.0000    1.4137 C   0  0  0  0  0  4           0  0  0
    1.6580   -2.4789    0.0175 C   0  0  0  0  0  4           0  0  0
    1.6215    1.5826   -1.9119 C   0  0  0  0  0  4           0  0  0
    2.2768   -3.6919    0.7069 C   0  0  0  0  0  4           0  0  0
    2.0510    2.7615   -1.0429 C   0  0  0  0  0  4           0  0  0
    1.8544   -4.9914    0.0391 C   0  0  0  0  0  4           0  0  0
    1.6186    4.0888   -1.6466 C   0  0  0  0  0  4           0  0  0
  1  8  1  0     0  0
  2  9  1  0     0  0
  3 22  1  0     0  0
  4 22  1  0     0  0
  5 22  1  0     0  0
  6 23  1  0     0  0
  7 24  1  0     0  0
  7 25  1  0     0  0
  7 26  1  0     0  0
  8 10  2  0     0  0
  8 16  1  0     0  0
  9 16  2  0     0  0
  9 17  1  0     0  0
 10 11  1  0     0  0
 10 18  1  0     0  0
 11 12  1  0     0  0
 11 17  2  0     0  0
 12 13  1  0     0  0
 12 19  2  0     0  0
 13 14  1  0     0  0
 13 20  2  0     0  0
 14 18  2  0     0  0
 14 23  1  0     0  0
 15 19  1  0     0  0
 15 21  2  0     0  0
 15 22  1  0     0  0
 20 21  1  0     0  0
 23 27  1  0     0  0
 24 27  1  0     0  0
 25 28  1  0     0  0
 26 29  1  0     0  0
 28 30  1  0     0  0
 29 31  1  0     0  0
 30 32  1  0     0  0
 31 33  1  0     0  0
M  END
> <standard_type>
pIC50

> <# Confs.>
25

> <canonical_smiles>
OC(C1=CC2=C(C=C(C=C2C3=CC(C(F)(F)F)=CC=C13)Cl)Cl)CCN(CCCC)CCCC

> <standard_relation>
=

> <Publication_ID>
nan

> <predicted_activity_value>
nan

> <actual_activity_value>
0.7055337738384071

> <Compound>
Halofantrine 

> <standard_units>
uM

> hash
18287317948981362988

$$$$
24
XXILIB    08252103503D 0   0.00000     0.00000

 33 35  0     1  0            999 V2000
   -3.8688   -3.7710    4.7438 Cl  0  0  0  0  0  1           0  0  0
   -5.4435   -0.8810    8.9472 Cl  0  0  0  0  0  1           0  0  0
   -3.9185    5.1562    6.5721 F   0  0  0  0  0  1           0  0  0
   -2.2527    5.9567    5.4266 F   0  0  0  0  0  1           0  0  0
   -4.2731    6.1006    4.6457 F   0  0  0  0  0  1           0  0  0
   -2.6158   -1.1589    0.7592 O   0  0  0  0  0  2           0  0  0
    1.4670    0.0000    0.0000 N   0  0  1  0  0  3           0  0  0
   -4.0483   -2.1962    5.4560 C   0  0  0  0  0  4           0  0  0
   -4.7672   -0.9435    7.3640 C   0  0  0  0  0  4           0  0  0
   -3.6574   -1.0060    4.7797 C   0  0  0  0  0  4           0  0  0
   -3.8293    0.2505    5.4154 C   0  0  0  0  0  4           0  0  0
   -3.4468    1.4629    4.7305 C   0  0  0  0  0  4           0  0  0
   -2.8938    1.3992    3.4203 C   0  0  0  0  0  4           0  0  0
   -2.6997    0.1375    2.8054 C   0  0  0  0  0  4           0  0  0
   -3.2590    3.9410    4.6422 C   0  0  0  0  0  4           0  0  0
   -4.5990   -2.1639    6.7367 C   0  0  0  0  0  4           0  0  0
   -4.3919    0.2371    6.7201 C   0  0  0  0  0  4           0  0  0
   -3.0990   -1.0238    3.4879 C   0  0  0  0  0  4           0  0  0
   -3.5999    2.7555    5.3059 C   0  0  0  0  0  4           0  0  0
   -2.5558    2.6102    2.7677 C   0  0  0  0  0  4           0  0  0
   -2.7293    3.8566    3.3654 C   0  0  0  0  0  4           0  0  0
   -3.4224    5.2682    5.3092 C   0  0  2  0  0  4           0  0  0
   -2.1122   -0.0000    1.4247 C   0  0  1  0  0  4           0  0  0
    0.0000    0.0000   -0.0000 C   0  0  0  0  0  4           0  0  0
    2.0664    1.1589    0.6691 C   0  0  0  0  0  4           0  0  0
    2.0437   -1.2678    0.4599 C   0  0  0  0  0  4           0  0  0
   -0.5790    0.0000    1.4137 C   0  0  0  0  0  4           0  0  0
    1.6580    2.4789    0.0175 C   0  0  0  0  0  4           0  0  0
    1.6215   -2.4470   -0.4146 C   0  0  0  0  0  4           0  0  0
    2.0764    2.5663   -1.4477 C   0  0  0  0  0  4           0  0  0
    2.2165   -3.7715    0.0558 C   0  0  0  0  0  4           0  0  0
    1.6581    3.8888   -2.0714 C   0  0  0  0  0  4           0  0  0
    1.7807   -4.9275   -0.8312 C   0  0  0  0  0  4           0  0  0
  1  8  1  0     0  0
  2  9  1  0     0  0
  3 22  1  0     0  0
  4 22  1  0     0  0
  5 22  1  0     0  0
  6 23  1  0     0  0
  7 24  1  0     0  0
  7 25  1  0     0  0
  7 26  1  0     0  0
  8 10  2  0     0  0
  8 16  1  0     0  0
  9 16  2  0     0  0
  9 17  1  0     0  0
 10 11  1  0     0  0
 10 18  1  0     0  0
 11 12  1  0     0  0
 11 17  2  0     0  0
 12 13  1  0     0  0
 12 19  2  0     0  0
 13 14  1  0     0  0
 13 20  2  0     0  0
 14 18  2  0     0  0
 14 23  1  0     0  0
 15 19  1  0     0  0
 15 21  2  0     0  0
 15 22  1  0     0  0
 20 21  1  0     0  0
 23 27  1  0     0  0
 24 27  1  0     0  0
 25 28  1  0     0  0
 26 29  1  0     0  0
 28 30  1  0     0  0
 29 31  1  0     0  0
 30 32  1  0     0  0
 31 33  1  0     0  0
M  END
> <standard_type>
pIC50

> <# Confs.>
25

> <canonical_smiles>
OC(C1=CC2=C(C=C(C=C2C3=CC(C(F)(F)F)=CC=C13)Cl)Cl)CCN(CCCC)CCCC

> <standard_relation>
=

> <Publication_ID>
nan

> <predicted_activity_value>
nan

> <actual_activity_value>
0.7055337738384071

> <Compound>
Halofantrine 

> <standard_units>
uM

> hash
18287317948981362988

$$$$
24
XXILIB    08252103503D 0   0.00000     0.00000

 33 35  0     1  0            999 V2000
    0.3274   -0.0069    6.1544 Cl  0  0  0  0  0  1           0  0  0
   -3.7812    0.6205    9.5050 Cl  0  0  0  0  0  1           0  0  0
   -8.6644    0.8893    4.9776 F   0  0  0  0  0  1           0  0  0
   -8.8684    1.8207    3.0235 F   0  0  0  0  0  1           0  0  0
   -9.1047   -0.3272    3.2299 F   0  0  0  0  0  1           0  0  0
   -2.6158   -1.1589    0.7592 O   0  0  0  0  0  2           0  0  0
    1.4670   -0.0000    0.0000 N   0  0  1  0  0  3           0  0  0
   -1.3883    0.1853    6.3507 C   0  0  0  0  0  4           0  0  0
   -3.1977    0.4661    7.8915 C   0  0  0  0  0  4           0  0  0
   -2.2820    0.2192    5.2429 C   0  0  0  0  0  4           0  0  0
   -3.6733    0.3794    5.4689 C   0  0  0  0  0  4           0  0  0
   -4.5870    0.4020    4.3510 C   0  0  0  0  0  4           0  0  0
   -4.0938    0.2682    3.0223 C   0  0  0  0  0  4           0  0  0
   -2.6997    0.1375    2.8054 C   0  0  0  0  0  4           0  0  0
   -6.8939    0.5463    3.4336 C   0  0  0  0  0  4           0  0  0
   -1.8436    0.3070    7.6631 C   0  0  0  0  0  4           0  0  0
   -4.0931    0.5015    6.8209 C   0  0  0  0  0  4           0  0  0
   -1.8364    0.0993    3.9132 C   0  0  0  0  0  4           0  0  0
   -5.9938    0.5504    4.5069 C   0  0  0  0  0  4           0  0  0
   -5.0215    0.2669    1.9519 C   0  0  0  0  0  4           0  0  0
   -6.3934    0.4076    2.1498 C   0  0  0  0  0  4           0  0  0
   -8.3595    0.7292    3.6604 C   0  0  2  0  0  4           0  0  0
   -2.1122   -0.0000    1.4247 C   0  0  1  0  0  4           0  0  0
    0.0000    0.0000    0.0000 C   0  0  0  0  0  4           0  0  0
    2.0664   -1.1589    0.6691 C   0  0  0  0  0  4           0  0  0
    2.0437    0.2356   -1.3279 C   0  0  0  0  0  4           0  0  0
   -0.5790   -0.0000    1.4137 C   0  0  0  0  0  4           0  0  0
    1.6580   -2.4789    0.0175 C   0  0  0  0  0  4           0  0  0
    1.6215    1.5826   -1.9119 C   0  0  0  0  0  4           0  0  0
    2.2768   -3.6919    0.7069 C   0  0  0  0  0  4           0  0  0
    2.2165    1.8374   -3.2941 C   0  0  0  0  0  4           0  0  0
    1.8544   -4.9914    0.0391 C   0  0  0  0  0  4           0  0  0
    1.7807    3.1836   -3.8517 C   0  0  0  0  0  4           0  0  0
  1  8  1  0     0  0
  2  9  1  0     0  0
  3 22  1  0     0  0
  4 22  1  0     0  0
  5 22  1  0     0  0
  6 23  1  0     0  0
  7 24  1  0     0  0
  7 25  1  0     0  0
  7 26  1  0     0  0
  8 10  2  0     0  0
  8 16  1  0     0  0
  9 16  2  0     0  0
  9 17  1  0     0  0
 10 11  1  0     0  0
 10 18  1  0     0  0
 11 12  1  0     0  0
 11 17  2  0     0  0
 12 13  1  0     0  0
 12 19  2  0     0  0
 13 14  1  0     0  0
 13 20  2  0     0  0
 14 18  2  0     0  0
 14 23  1  0     0  0
 15 19  1  0     0  0
 15 21  2  0     0  0
 15 22  1  0     0  0
 20 21  1  0     0  0
 23 27  1  0     0  0
 24 27  1  0     0  0
 25 28  1  0     0  0
 26 29  1  0     0  0
 28 30  1  0     0  0
 29 31  1  0     0  0
 30 32  1  0     0  0
 31 33  1  0     0  0
M  END
> <standard_type>
pIC50

> <# Confs.>
25

> <canonical_smiles>
OC(C1=CC2=C(C=C(C=C2C3=CC(C(F)(F)F)=CC=C13)Cl)Cl)CCN(CCCC)CCCC

> <standard_relation>
=

> <Publication_ID>
nan

> <predicted_activity_value>
nan

> <actual_activity_value>
0.7055337738384071

> <Compound>
Halofantrine 

> <standard_units>
uM

> hash
18287317948981362988

$$$$
24
XXILIB    08252103503D 0   0.00000     0.00000

 33 35  0     1  0            999 V2000
   -1.9542    5.2471    2.2996 Cl  0  0  0  0  0  1           0  0  0
   -4.7539    7.1303   -1.8375 Cl  0  0  0  0  0  1           0  0  0
   -6.1869    1.3060   -4.7427 F   0  0  0  0  0  1           0  0  0
   -5.0706   -0.5266   -5.0936 F   0  0  0  0  0  1           0  0  0
   -6.9136   -0.5831   -3.9481 F   0  0  0  0  0  1           0  0  0
   -2.6013   -0.0000    2.7664 O   0  0  0  0  0  2           0  0  0
    1.4670    0.0000    0.0000 N   0  0  1  0  0  3           0  0  0
   -2.8574    4.8936    0.8579 C   0  0  0  0  0  4           0  0  0
   -4.1042    5.7848   -0.9799 C   0  0  0  0  0  4           0  0  0
   -3.0571    3.5632    0.3919 C   0  0  0  0  0  4           0  0  0
   -3.8040    3.3399   -0.7933 C   0  0  0  0  0  4           0  0  0
   -4.0214    1.9925   -1.2650 C   0  0  0  0  0  4           0  0  0
   -3.4841    0.8881   -0.5451 C   0  0  0  0  0  4           0  0  0
   -2.7154    1.1233    0.6217 C   0  0  0  0  0  4           0  0  0
   -5.0096    0.3941   -2.8937 C   0  0  0  0  0  4           0  0  0
   -3.3776    5.9939    0.1773 C   0  0  0  0  0  4           0  0  0
   -4.3138    4.4890   -1.4556 C   0  0  0  0  0  4           0  0  0
   -2.5366    2.4436    1.0676 C   0  0  0  0  0  4           0  0  0
   -4.7677    1.6972   -2.4402 C   0  0  0  0  0  4           0  0  0
   -3.7407   -0.4209   -1.0216 C   0  0  0  0  0  4           0  0  0
   -4.4837   -0.6660   -2.1743 C   0  0  0  0  0  4           0  0  0
   -5.7824    0.1495   -4.1490 C   0  0  2  0  0  4           0  0  0
   -2.1122   -0.0000    1.4247 C   0  0  1  0  0  4           0  0  0
    0.0000   -0.0000    0.0000 C   0  0  0  0  0  4           0  0  0
    2.0664    1.1589    0.6691 C   0  0  0  0  0  4           0  0  0
    2.0437   -1.2678    0.4599 C   0  0  0  0  0  4           0  0  0
   -0.5790   -0.0000    1.4137 C   0  0  0  0  0  4           0  0  0
    1.6580    2.4789    0.0175 C   0  0  0  0  0  4           0  0  0
    1.6215   -2.4470   -0.4146 C   0  0  0  0  0  4           0  0  0
    2.0764    2.5663   -1.4477 C   0  0  0  0  0  4           0  0  0
    2.2165   -3.7715    0.0558 C   0  0  0  0  0  4           0  0  0
    1.6581    3.8888   -2.0714 C   0  0  0  0  0  4           0  0  0
    1.7807   -4.9275   -0.8312 C   0  0  0  0  0  4           0  0  0
  1  8  1  0     0  0
  2  9  1  0     0  0
  3 22  1  0     0  0
  4 22  1  0     0  0
  5 22  1  0     0  0
  6 23  1  0     0  0
  7 24  1  0     0  0
  7 25  1  0     0  0
  7 26  1  0     0  0
  8 10  2  0     0  0
  8 16  1  0     0  0
  9 16  2  0     0  0
  9 17  1  0     0  0
 10 11  1  0     0  0
 10 18  1  0     0  0
 11 12  1  0     0  0
 11 17  2  0     0  0
 12 13  1  0     0  0
 12 19  2  0     0  0
 13 14  1  0     0  0
 13 20  2  0     0  0
 14 18  2  0     0  0
 14 23  1  0     0  0
 15 19  1  0     0  0
 15 21  2  0     0  0
 15 22  1  0     0  0
 20 21  1  0     0  0
 23 27  1  0     0  0
 24 27  1  0     0  0
 25 28  1  0     0  0
 26 29  1  0     0  0
 28 30  1  0     0  0
 29 31  1  0     0  0
 30 32  1  0     0  0
 31 33  1  0     0  0
M  END
> <standard_type>
pIC50

> <# Confs.>
25

> <canonical_smiles>
OC(C1=CC2=C(C=C(C=C2C3=CC(C(F)(F)F)=CC=C13)Cl)Cl)CCN(CCCC)CCCC

> <standard_relation>
=

> <Publication_ID>
nan

> <predicted_activity_value>
nan

> <actual_activity_value>
0.7055337738384071

> <Compound>
Halofantrine 

> <standard_units>
uM

> hash
18287317948981362988

$$$$
24
XXILIB    08252103503D 0   0.00000     0.00000

 33 35  0     1  0            999 V2000
   -3.8688   -3.7710    4.7438 Cl  0  0  0  0  0  1           0  0  0
   -5.4435   -0.8810    8.9472 Cl  0  0  0  0  0  1           0  0  0
   -3.9185    5.1562    6.5721 F   0  0  0  0  0  1           0  0  0
   -2.2527    5.9567    5.4266 F   0  0  0  0  0  1           0  0  0
   -4.2731    6.1006    4.6457 F   0  0  0  0  0  1           0  0  0
   -2.6158   -1.1589    0.7592 O   0  0  0  0  0  2           0  0  0
    1.4670   -0.0000   -0.0000 N   0  0  1  0  0  3           0  0  0
   -4.0483   -2.1962    5.4560 C   0  0  0  0  0  4           0  0  0
   -4.7672   -0.9435    7.3640 C   0  0  0  0  0  4           0  0  0
   -3.6574   -1.0060    4.7797 C   0  0  0  0  0  4           0  0  0
   -3.8293    0.2505    5.4154 C   0  0  0  0  0  4           0  0  0
   -3.4468    1.4629    4.7305 C   0  0  0  0  0  4           0  0  0
   -2.8938    1.3992    3.4203 C   0  0  0  0  0  4           0  0  0
   -2.6997    0.1375    2.8054 C   0  0  0  0  0  4           0  0  0
   -3.2590    3.9410    4.6422 C   0  0  0  0  0  4           0  0  0
   -4.5990   -2.1639    6.7367 C   0  0  0  0  0  4           0  0  0
   -4.3919    0.2371    6.7201 C   0  0  0  0  0  4           0  0  0
   -3.0990   -1.0238    3.4879 C   0  0  0  0  0  4           0  0  0
   -3.5999    2.7555    5.3059 C   0  0  0  0  0  4           0  0  0
   -2.5558    2.6102    2.7677 C   0  0  0  0  0  4           0  0  0
   -2.7293    3.8566    3.3654 C   0  0  0  0  0  4           0  0  0
   -3.4224    5.2682    5.3092 C   0  0  2  0  0  4           0  0  0
   -2.1122   -0.0000    1.4247 C   0  0  1  0  0  4           0  0  0
    0.0000    0.0000   -0.0000 C   0  0  0  0  0  4           0  0  0
    2.0664    0.0000   -1.3382 C   0  0  0  0  0  4           0  0  0
    2.0437    1.0322    0.8680 C   0  0  0  0  0  4           0  0  0
   -0.5790    0.0000    1.4137 C   0  0  0  0  0  4           0  0  0
    1.6580   -1.2243   -2.1556 C   0  0  0  0  0  4           0  0  0
    1.6215    2.4403    0.4524 C   0  0  0  0  0  4           0  0  0
    2.0764   -2.5369   -1.4987 C   0  0  0  0  0  4           0  0  0
    2.2165    3.5221    1.3497 C   0  0  0  0  0  4           0  0  0
    1.6581   -3.7383   -2.3321 C   0  0  0  0  0  4           0  0  0
    1.7807    4.9127    0.9145 C   0  0  0  0  0  4           0  0  0
  1  8  1  0     0  0
  2  9  1  0     0  0
  3 22  1  0     0  0
  4 22  1  0     0  0
  5 22  1  0     0  0
  6 23  1  0     0  0
  7 24  1  0     0  0
  7 25  1  0     0  0
  7 26  1  0     0  0
  8 10  2  0     0  0
  8 16  1  0     0  0
  9 16  2  0     0  0
  9 17  1  0     0  0
 10 11  1  0     0  0
 10 18  1  0     0  0
 11 12  1  0     0  0
 11 17  2  0     0  0
 12 13  1  0     0  0
 12 19  2  0     0  0
 13 14  1  0     0  0
 13 20  2  0     0  0
 14 18  2  0     0  0
 14 23  1  0     0  0
 15 19  1  0     0  0
 15 21  2  0     0  0
 15 22  1  0     0  0
 20 21  1  0     0  0
 23 27  1  0     0  0
 24 27  1  0     0  0
 25 28  1  0     0  0
 26 29  1  0     0  0
 28 30  1  0     0  0
 29 31  1  0     0  0
 30 32  1  0     0  0
 31 33  1  0     0  0
M  END
> <standard_type>
pIC50

> <# Confs.>
25

> <canonical_smiles>
OC(C1=CC2=C(C=C(C=C2C3=CC(C(F)(F)F)=CC=C13)Cl)Cl)CCN(CCCC)CCCC

> <standard_relation>
=

> <Publication_ID>
nan

> <predicted_activity_value>
nan

> <actual_activity_value>
0.7055337738384071

> <Compound>
Halofantrine 

> <standard_units>
uM

> hash
18287317948981362988

$$$$
24
XXILIB    08252103503D 0   0.00000     0.00000

 33 35  0     1  0            999 V2000
   -3.8688   -3.7710    4.7438 Cl  0  0  0  0  0  1           0  0  0
   -5.4435   -0.8810    8.9472 Cl  0  0  0  0  0  1           0  0  0
   -3.9185    5.1562    6.5721 F   0  0  0  0  0  1           0  0  0
   -2.2527    5.9567    5.4266 F   0  0  0  0  0  1           0  0  0
   -4.2731    6.1006    4.6457 F   0  0  0  0  0  1           0  0  0
   -2.6158   -1.1589    0.7592 O   0  0  0  0  0  2           0  0  0
    1.4670    0.0000   -0.0000 N   0  0  1  0  0  3           0  0  0
   -4.0483   -2.1962    5.4560 C   0  0  0  0  0  4           0  0  0
   -4.7672   -0.9435    7.3640 C   0  0  0  0  0  4           0  0  0
   -3.6574   -1.0060    4.7797 C   0  0  0  0  0  4           0  0  0
   -3.8293    0.2505    5.4154 C   0  0  0  0  0  4           0  0  0
   -3.4468    1.4629    4.7305 C   0  0  0  0  0  4           0  0  0
   -2.8938    1.3992    3.4203 C   0  0  0  0  0  4           0  0  0
   -2.6997    0.1375    2.8054 C   0  0  0  0  0  4           0  0  0
   -3.2590    3.9410    4.6422 C   0  0  0  0  0  4           0  0  0
   -4.5990   -2.1639    6.7367 C   0  0  0  0  0  4           0  0  0
   -4.3919    0.2371    6.7201 C   0  0  0  0  0  4           0  0  0
   -3.0990   -1.0238    3.4879 C   0  0  0  0  0  4           0  0  0
   -3.5999    2.7555    5.3059 C   0  0  0  0  0  4           0  0  0
   -2.5558    2.6102    2.7677 C   0  0  0  0  0  4           0  0  0
   -2.7293    3.8566    3.3654 C   0  0  0  0  0  4           0  0  0
   -3.4224    5.2682    5.3092 C   0  0  2  0  0  4           0  0  0
   -2.1122   -0.0000    1.4247 C   0  0  1  0  0  4           0  0  0
    0.0000    0.0000   -0.0000 C   0  0  0  0  0  4           0  0  0
    2.0664    0.0000   -1.3382 C   0  0  0  0  0  4           0  0  0
    2.0437    1.0322    0.8680 C   0  0  0  0  0  4           0  0  0
   -0.5790    0.0000    1.4137 C   0  0  0  0  0  4           0  0  0
    1.6580   -1.2243   -2.1556 C   0  0  0  0  0  4           0  0  0
    1.6215    2.4403    0.4524 C   0  0  0  0  0  4           0  0  0
    2.2768   -1.2338   -3.5507 C   0  0  0  0  0  4           0  0  0
    2.2165    3.5221    1.3497 C   0  0  0  0  0  4           0  0  0
    1.8544   -2.4618   -4.3422 C   0  0  0  0  0  4           0  0  0
    1.7807    4.9127    0.9145 C   0  0  0  0  0  4           0  0  0
  1  8  1  0     0  0
  2  9  1  0     0  0
  3 22  1  0     0  0
  4 22  1  0     0  0
  5 22  1  0     0  0
  6 23  1  0     0  0
  7 24  1  0     0  0
  7 25  1  0     0  0
  7 26  1  0     0  0
  8 10  2  0     0  0
  8 16  1  0     0  0
  9 16  2  0     0  0
  9 17  1  0     0  0
 10 11  1  0     0  0
 10 18  1  0     0  0
 11 12  1  0     0  0
 11 17  2  0     0  0
 12 13  1  0     0  0
 12 19  2  0     0  0
 13 14  1  0     0  0
 13 20  2  0     0  0
 14 18  2  0     0  0
 14 23  1  0     0  0
 15 19  1  0     0  0
 15 21  2  0     0  0
 15 22  1  0     0  0
 20 21  1  0     0  0
 23 27  1  0     0  0
 24 27  1  0     0  0
 25 28  1  0     0  0
 26 29  1  0     0  0
 28 30  1  0     0  0
 29 31  1  0     0  0
 30 32  1  0     0  0
 31 33  1  0     0  0
M  END
> <standard_type>
pIC50

> <# Confs.>
25

> <canonical_smiles>
OC(C1=CC2=C(C=C(C=C2C3=CC(C(F)(F)F)=CC=C13)Cl)Cl)CCN(CCCC)CCCC

> <standard_relation>
=

> <Publication_ID>
nan

> <predicted_activity_value>
nan

> <actual_activity_value>
0.7055337738384071

> <Compound>
Halofantrine 

> <standard_units>
uM

> hash
18287317948981362988

$$$$
24
XXILIB    08252103503D 0   0.00000     0.00000

 33 35  0     1  0            999 V2000
   -1.9310   -3.3822    5.5296 Cl  0  0  0  0  0  1           0  0  0
   -4.6741   -0.7236    9.2589 Cl  0  0  0  0  0  1           0  0  0
   -6.1118    4.7133    5.6829 F   0  0  0  0  0  1           0  0  0
   -5.0033    5.9266    4.2592 F   0  0  0  0  0  1           0  0  0
   -6.8589    4.9743    3.6576 F   0  0  0  0  0  1           0  0  0
   -2.6158   -1.1589    0.7592 O   0  0  0  0  0  2           0  0  0
    1.4670   -0.0000    0.0000 N   0  0  1  0  0  3           0  0  0
   -2.8207   -1.9513    5.9540 C   0  0  0  0  0  4           0  0  0
   -4.0421   -0.7976    7.6580 C   0  0  0  0  0  4           0  0  0
   -3.0237   -0.8813    5.0369 C   0  0  0  0  0  4           0  0  0
   -3.7591    0.2614    5.4441 C   0  0  0  0  0  4           0  0  0
   -3.9798    1.3449    4.5155 C   0  0  0  0  0  4           0  0  0
   -3.4572    1.2703    3.1934 C   0  0  0  0  0  4           0  0  0
   -2.6997    0.1375    2.8054 C   0  0  0  0  0  4           0  0  0
   -4.9603    3.5608    3.9562 C   0  0  0  0  0  4           0  0  0
   -3.3267   -1.9088    7.2527 C   0  0  0  0  0  4           0  0  0
   -4.2545    0.2636    6.7759 C   0  0  0  0  0  4           0  0  0
   -2.5175   -0.9099    3.7239 C   0  0  0  0  0  4           0  0  0
   -4.7152    2.5150    4.8553 C   0  0  0  0  0  4           0  0  0
   -3.7168    2.3391    2.3008 C   0  0  0  0  0  4           0  0  0
   -4.4488    3.4645    2.6728 C   0  0  0  0  0  4           0  0  0
   -5.7210    4.7750    4.3802 C   0  0  2  0  0  4           0  0  0
   -2.1122   -0.0000    1.4247 C   0  0  1  0  0  4           0  0  0
    0.0000    0.0000   -0.0000 C   0  0  0  0  0  4           0  0  0
    2.0664   -1.1589    0.6691 C   0  0  0  0  0  4           0  0  0
    2.0437    0.2356   -1.3279 C   0  0  0  0  0  4           0  0  0
   -0.5790    0.0000    1.4137 C   0  0  0  0  0  4           0  0  0
    1.6580   -2.4789    0.0175 C   0  0  0  0  0  4           0  0  0
    1.6215    1.5826   -1.9119 C   0  0  0  0  0  4           0  0  0
    2.2768   -3.6919    0.7069 C   0  0  0  0  0  4           0  0  0
    2.2165    1.8374   -3.2941 C   0  0  0  0  0  4           0  0  0
    1.8544   -4.9914    0.0391 C   0  0  0  0  0  4           0  0  0
    1.7807    3.1836   -3.8517 C   0  0  0  0  0  4           0  0  0
  1  8  1  0     0  0
  2  9  1  0     0  0
  3 22  1  0     0  0
  4 22  1  0     0  0
  5 22  1  0     0  0
  6 23  1  0     0  0
  7 24  1  0     0  0
  7 25  1  0     0  0
  7 26  1  0     0  0
  8 10  2  0     0  0
  8 16  1  0     0  0
  9 16  2  0     0  0
  9 17  1  0     0  0
 10 11  1  0     0  0
 10 18  1  0     0  0
 11 12  1  0     0  0
 11 17  2  0     0  0
 12 13  1  0     0  0
 12 19  2  0     0  0
 13 14  1  0     0  0
 13 20  2  0     0  0
 14 18  2  0     0  0
 14 23  1  0     0  0
 15 19  1  0     0  0
 15 21  2  0     0  0
 15 22  1  0     0  0
 20 21  1  0     0  0
 23 27  1  0     0  0
 24 27  1  0     0  0
 25 28  1  0     0  0
 26 29  1  0     0  0
 28 30  1  0     0  0
 29 31  1  0     0  0
 30 32  1  0     0  0
 31 33  1  0     0  0
M  END
> <standard_type>
pIC50

> <# Confs.>
25

> <canonical_smiles>
OC(C1=CC2=C(C=C(C=C2C3=CC(C(F)(F)F)=CC=C13)Cl)Cl)CCN(CCCC)CCCC

> <standard_relation>
=

> <Publication_ID>
nan

> <predicted_activity_value>
nan

> <actual_activity_value>
0.7055337738384071

> <Compound>
Halofantrine 

> <standard_units>
uM

> hash
18287317948981362988

$$$$
24
XXILIB    08252103503D 0   0.00000     0.00000

 33 35  0     1  0            999 V2000
   -4.8589   -3.4349    1.1099 Cl  0  0  0  0  0  1           0  0  0
   -3.3950   -7.9781   -1.2809 Cl  0  0  0  0  0  1           0  0  0
    3.2088   -7.1680   -0.8945 F   0  0  0  0  0  1           0  0  0
    4.5445   -5.4722   -1.1556 F   0  0  0  0  0  1           0  0  0
    4.5115   -6.5451    0.7313 F   0  0  0  0  0  1           0  0  0
   -0.7153   -1.1767    3.5389 O   0  0  0  0  0  2           0  0  0
    1.4670    0.0000   -0.0000 N   0  0  1  0  0  3           0  0  0
   -3.5601   -4.4552    0.5701 C   0  0  0  0  0  4           0  0  0
   -2.9527   -6.5032   -0.5083 C   0  0  0  0  0  4           0  0  0
   -2.1920   -4.1030    0.7463 C   0  0  0  0  0  4           0  0  0
   -1.1769   -4.9789    0.2827 C   0  0  0  0  0  4           0  0  0
    0.2128   -4.6343    0.4693 C   0  0  0  0  0  4           0  0  0
    0.5663   -3.4152    1.1138 C   0  0  0  0  0  4           0  0  0
   -0.4547   -2.5337    1.5476 C   0  0  0  0  0  4           0  0  0
    2.6319   -5.1617    0.2360 C   0  0  0  0  0  4           0  0  0
   -3.9359   -5.6456   -0.0514 C   0  0  0  0  0  4           0  0  0
   -1.6044   -6.1794   -0.3460 C   0  0  0  0  0  4           0  0  0
   -1.7982   -2.9042    1.3700 C   0  0  0  0  0  4           0  0  0
    1.2802   -5.4705    0.0368 C   0  0  0  0  0  4           0  0  0
    1.9391   -3.1227    1.3046 C   0  0  0  0  0  4           0  0  0
    2.9534   -3.9740    0.8717 C   0  0  0  0  0  4           0  0  0
    3.7082   -6.0707   -0.2620 C   0  0  2  0  0  4           0  0  0
   -0.1486   -1.2251    2.2289 C   0  0  1  0  0  4           0  0  0
    0.0000    0.0000    0.0000 C   0  0  0  0  0  4           0  0  0
    2.0664    0.0000   -1.3382 C   0  0  0  0  0  4           0  0  0
    2.0437    1.0322    0.8680 C   0  0  0  0  0  4           0  0  0
   -0.5790    0.0000    1.4137 C   0  0  0  0  0  4           0  0  0
    1.6580   -1.2243   -2.1556 C   0  0  0  0  0  4           0  0  0
    1.6215    2.4403    0.4524 C   0  0  0  0  0  4           0  0  0
    2.2768   -1.2338   -3.5507 C   0  0  0  0  0  4           0  0  0
    2.2165    3.5221    1.3497 C   0  0  0  0  0  4           0  0  0
    1.8544   -2.4618   -4.3422 C   0  0  0  0  0  4           0  0  0
    1.7807    4.9127    0.9145 C   0  0  0  0  0  4           0  0  0
  1  8  1  0     0  0
  2  9  1  0     0  0
  3 22  1  0     0  0
  4 22  1  0     0  0
  5 22  1  0     0  0
  6 23  1  0     0  0
  7 24  1  0     0  0
  7 25  1  0     0  0
  7 26  1  0     0  0
  8 10  2  0     0  0
  8 16  1  0     0  0
  9 16  2  0     0  0
  9 17  1  0     0  0
 10 11  1  0     0  0
 10 18  1  0     0  0
 11 12  1  0     0  0
 11 17  2  0     0  0
 12 13  1  0     0  0
 12 19  2  0     0  0
 13 14  1  0     0  0
 13 20  2  0     0  0
 14 18  2  0     0  0
 14 23  1  0     0  0
 15 19  1  0     0  0
 15 21  2  0     0  0
 15 22  1  0     0  0
 20 21  1  0     0  0
 23 27  1  0     0  0
 24 27  1  0     0  0
 25 28  1  0     0  0
 26 29  1  0     0  0
 28 30  1  0     0  0
 29 31  1  0     0  0
 30 32  1  0     0  0
 31 33  1  0     0  0
M  END
> <standard_type>
pIC50

> <# Confs.>
25

> <canonical_smiles>
OC(C1=CC2=C(C=C(C=C2C3=CC(C(F)(F)F)=CC=C13)Cl)Cl)CCN(CCCC)CCCC

> <standard_relation>
=

> <Publication_ID>
nan

> <predicted_activity_value>
nan

> <actual_activity_value>
0.7055337738384071

> <Compound>
Halofantrine 

> <standard_units>
uM

> hash
18287317948981362988

$$$$
24
XXILIB    08252103503D 0   0.00000     0.00000

 33 35  0     1  0            999 V2000
   -0.4326    5.0149    0.8318 Cl  0  0  0  0  0  1           0  0  0
   -4.1512    7.0361   -2.4221 Cl  0  0  0  0  0  1           0  0  0
   -7.9078    1.5707   -3.0796 F   0  0  0  0  0  1           0  0  0
   -7.4730   -0.5465   -3.3167 F   0  0  0  0  0  1           0  0  0
   -8.6618    0.1335   -1.6325 F   0  0  0  0  0  1           0  0  0
   -2.6013   -0.0000    2.7664 O   0  0  0  0  0  2           0  0  0
    1.4670   -0.0000   -0.0000 N   0  0  1  0  0  3           0  0  0
   -1.8928    4.7474   -0.0713 C   0  0  0  0  0  4           0  0  0
   -3.5351    5.6976   -1.5295 C   0  0  0  0  0  4           0  0  0
   -2.5583    3.4889   -0.0866 C   0  0  0  0  0  4           0  0  0
   -3.7475    3.3336   -0.8446 C   0  0  0  0  0  4           0  0  0
   -4.4348    2.0638   -0.8547 C   0  0  0  0  0  4           0  0  0
   -3.9191    0.9662   -0.1090 C   0  0  0  0  0  4           0  0  0
   -2.7154    1.1233    0.6217 C   0  0  0  0  0  4           0  0  0
   -6.3275    0.6240   -1.5821 C   0  0  0  0  0  4           0  0  0
   -2.3784    5.8417   -0.7863 C   0  0  0  0  0  4           0  0  0
   -4.2054    4.4732   -1.5591 C   0  0  0  0  0  4           0  0  0
   -2.0788    2.3757    0.6288 C   0  0  0  0  0  4           0  0  0
   -5.6357    1.8420   -1.5856 C   0  0  0  0  0  4           0  0  0
   -4.6345   -0.2562   -0.1198 C   0  0  0  0  0  4           0  0  0
   -5.8121   -0.4284   -0.8441 C   0  0  0  0  0  4           0  0  0
   -7.5725    0.4463   -2.3891 C   0  0  2  0  0  4           0  0  0
   -2.1122   -0.0000    1.4247 C   0  0  1  0  0  4           0  0  0
    0.0000    0.0000    0.0000 C   0  0  0  0  0  4           0  0  0
    2.0664   -1.1589    0.6691 C   0  0  0  0  0  4           0  0  0
    2.0437    0.2356   -1.3279 C   0  0  0  0  0  4           0  0  0
   -0.5790   -0.0000    1.4137 C   0  0  0  0  0  4           0  0  0
    1.6580   -2.4789    0.0175 C   0  0  0  0  0  4           0  0  0
    1.6215    1.5826   -1.9119 C   0  0  0  0  0  4           0  0  0
    2.2768   -3.6919    0.7069 C   0  0  0  0  0  4           0  0  0
    2.0510    2.7615   -1.0429 C   0  0  0  0  0  4           0  0  0
    1.8544   -4.9914    0.0391 C   0  0  0  0  0  4           0  0  0
    1.6186    4.0888   -1.6466 C   0  0  0  0  0  4           0  0  0
  1  8  1  0     0  0
  2  9  1  0     0  0
  3 22  1  0     0  0
  4 22  1  0     0  0
  5 22  1  0     0  0
  6 23  1  0     0  0
  7 24  1  0     0  0
  7 25  1  0     0  0
  7 26  1  0     0  0
  8 10  2  0     0  0
  8 16  1  0     0  0
  9 16  2  0     0  0
  9 17  1  0     0  0
 10 11  1  0     0  0
 10 18  1  0     0  0
 11 12  1  0     0  0
 11 17  2  0     0  0
 12 13  1  0     0  0
 12 19  2  0     0  0
 13 14  1  0     0  0
 13 20  2  0     0  0
 14 18  2  0     0  0
 14 23  1  0     0  0
 15 19  1  0     0  0
 15 21  2  0     0  0
 15 22  1  0     0  0
 20 21  1  0     0  0
 23 27  1  0     0  0
 24 27  1  0     0  0
 25 28  1  0     0  0
 26 29  1  0     0  0
 28 30  1  0     0  0
 29 31  1  0     0  0
 30 32  1  0     0  0
 31 33  1  0     0  0
M  END
> <standard_type>
pIC50

> <# Confs.>
25

> <canonical_smiles>
OC(C1=CC2=C(C=C(C=C2C3=CC(C(F)(F)F)=CC=C13)Cl)Cl)CCN(CCCC)CCCC

> <standard_relation>
=

> <Publication_ID>
nan

> <predicted_activity_value>
nan

> <actual_activity_value>
0.7055337738384071

> <Compound>
Halofantrine 

> <standard_units>
uM

> hash
18287317948981362988

$$$$
24
XXILIB    08252103503D 0   0.00000     0.00000

 33 35  0     1  0            999 V2000
   -3.9280   -0.9779   -3.4813 Cl  0  0  0  0  0  1           0  0  0
   -5.5299   -6.0532   -3.0630 Cl  0  0  0  0  0  1           0  0  0
   -3.9418   -7.0245    3.3362 F   0  0  0  0  0  1           0  0  0
   -2.2588   -6.4432    4.5841 F   0  0  0  0  0  1           0  0  0
   -4.2696   -5.8262    5.1209 F   0  0  0  0  0  1           0  0  0
   -2.6158    1.1589    0.7592 O   0  0  0  0  0  2           0  0  0
    1.4670   -0.0000    0.0000 N   0  0  1  0  0  3           0  0  0
   -4.1054   -2.3809   -2.4717 C   0  0  0  0  0  4           0  0  0
   -4.8370   -4.6551   -2.3329 C   0  0  0  0  0  4           0  0  0
   -3.6998   -2.3928   -1.1071 C   0  0  0  0  0  4           0  0  0
   -3.8706   -3.5705   -0.3348 C   0  0  0  0  0  4           0  0  0
   -3.4733   -3.5860    1.0533 C   0  0  0  0  0  4           0  0  0
   -2.9065   -2.4229    1.6472 C   0  0  0  0  0  4           0  0  0
   -2.7137   -1.2608    0.8598 C   0  0  0  0  0  4           0  0  0
   -3.2691   -4.7498    3.2415 C   0  0  0  0  0  4           0  0  0
   -4.6696   -3.5028   -3.0780 C   0  0  0  0  0  4           0  0  0
   -4.4474   -4.6902   -0.9927 C   0  0  0  0  0  4           0  0  0
   -3.1275   -1.2686   -0.4827 C   0  0  0  0  0  4           0  0  0
   -3.6245   -4.7296    1.8867 C   0  0  0  0  0  4           0  0  0
   -2.5540   -2.4654    3.0185 C   0  0  0  0  0  4           0  0  0
   -2.7261   -3.6051    3.8010 C   0  0  0  0  0  4           0  0  0
   -3.4314   -5.9899    4.0591 C   0  0  2  0  0  4           0  0  0
   -2.1122    0.0000    1.4247 C   0  0  1  0  0  4           0  0  0
    0.0000    0.0000    0.0000 C   0  0  0  0  0  4           0  0  0
    2.0664   -1.1589    0.6691 C   0  0  0  0  0  4           0  0  0
    2.0437    0.2356   -1.3279 C   0  0  0  0  0  4           0  0  0
   -0.5790    0.0000    1.4137 C   0  0  0  0  0  4           0  0  0
    1.6580   -2.4789    0.0175 C   0  0  0  0  0  4           0  0  0
    1.6215    1.5826   -1.9119 C   0  0  0  0  0  4           0  0  0
    2.2768   -3.6919    0.7069 C   0  0  0  0  0  4           0  0  0
    2.2165    1.8374   -3.2941 C   0  0  0  0  0  4           0  0  0
    1.8544   -4.9914    0.0391 C   0  0  0  0  0  4           0  0  0
    1.7807    3.1836   -3.8517 C   0  0  0  0  0  4           0  0  0
  1  8  1  0     0  0
  2  9  1  0     0  0
  3 22  1  0     0  0
  4 22  1  0     0  0
  5 22  1  0     0  0
  6 23  1  0     0  0
  7 24  1  0     0  0
  7 25  1  0     0  0
  7 26  1  0     0  0
  8 10  2  0     0  0
  8 16  1  0     0  0
  9 16  2  0     0  0
  9 17  1  0     0  0
 10 11  1  0     0  0
 10 18  1  0     0  0
 11 12  1  0     0  0
 11 17  2  0     0  0
 12 13  1  0     0  0
 12 19  2  0     0  0
 13 14  1  0     0  0
 13 20  2  0     0  0
 14 18  2  0     0  0
 14 23  1  0     0  0
 15 19  1  0     0  0
 15 21  2  0     0  0
 15 22  1  0     0  0
 20 21  1  0     0  0
 23 27  1  0     0  0
 24 27  1  0     0  0
 25 28  1  0     0  0
 26 29  1  0     0  0
 28 30  1  0     0  0
 29 31  1  0     0  0
 30 32  1  0     0  0
 31 33  1  0     0  0
M  END
> <standard_type>
pIC50

> <# Confs.>
25

> <canonical_smiles>
OC(C1=CC2=C(C=C(C=C2C3=CC(C(F)(F)F)=CC=C13)Cl)Cl)CCN(CCCC)CCCC

> <standard_relation>
=

> <Publication_ID>
nan

> <predicted_activity_value>
nan

> <actual_activity_value>
0.7055337738384071

> <Compound>
Halofantrine 

> <standard_units>
uM

> hash
18287317948981362988

$$$$
29
XXILIB    08252103503D 0   0.00000     0.00000

 35 38  0     1  0            999 V2000
   -4.7928    2.6313   -0.0618 Cl  0  0  0  0  0  1           0  0  0
   -2.7050   -6.2709    4.7277 Cl  0  0  0  0  0  1           0  0  0
   -9.3135   -6.6386    5.1459 Cl  0  0  0  0  0  1           0  0  0
   -0.1637    1.1620    2.1198 O   0  0  0  0  0  2           0  0  0
    1.4617    0.0000    0.0000 N   0  0  2  0  0  3           0  0  0
   -4.1080    1.2450    0.6993 C   0  0  0  0  0  4           0  0  0
   -2.7067   -4.7451    3.9267 C   0  0  0  0  0  4           0  0  0
   -8.4481   -5.3451    4.4083 C   0  0  0  0  0  4           0  0  0
   -2.9350   -0.9927    1.9276 C   0  0  0  0  0  4           0  0  0
   -2.6667   -2.2712    2.6163 C   0  0  0  0  0  4           0  0  0
   -2.0986    0.0001    1.3919 C   0  0  0  0  0  4           0  0  0
   -4.3493   -0.8298    1.8369 C   0  0  0  0  0  4           0  0  0
   -3.8916   -2.9051    2.9633 C   0  0  0  0  0  4           0  0  0
   -7.0396   -3.2494    3.2124 C   0  0  0  0  0  4           0  0  0
   -2.7158    1.1153    0.7768 C   0  0  0  0  0  4           0  0  0
   -4.9413    0.2711    1.2310 C   0  0  0  0  0  4           0  0  0
   -3.9194   -4.1342    3.6118 C   0  0  0  0  0  4           0  0  0
   -1.4919   -4.1387    3.5979 C   0  0  0  0  0  4           0  0  0
   -8.0818   -4.2347    5.1682 C   0  0  0  0  0  4           0  0  0
   -8.1159   -5.4174    3.0559 C   0  0  0  0  0  4           0  0  0
   -1.4716   -2.9031    2.9414 C   0  0  0  0  0  4           0  0  0
   -7.3789   -3.1873    4.5698 C   0  0  0  0  0  4           0  0  0
   -7.4114   -4.3698    2.4587 C   0  0  0  0  0  4           0  0  0
   -0.5935   -0.0000    1.4113 C   0  0  1  0  0  4           0  0  0
    0.0000    0.0000    0.0000 C   0  0  0  0  0  4           0  0  0
    2.0784    0.0000   -1.3291 C   0  0  0  0  0  4           0  0  0
    2.0755   -0.9100    0.9655 C   0  0  0  0  0  4           0  0  0
   -4.9740   -2.0115    2.4879 C   0  0  0  0  0  4           0  0  0
   -6.3093   -2.1527    2.5854 C   0  0  0  0  0  4           0  0  0
    1.6881    1.2222   -2.1645 C   0  0  0  0  0  4           0  0  0
    1.6842   -2.3720    0.7348 C   0  0  0  0  0  4           0  0  0
    2.0774    2.5675   -1.5530 C   0  0  0  0  0  4           0  0  0
    2.3014   -3.3639    1.7200 C   0  0  0  0  0  4           0  0  0
    1.6694    3.7510   -2.4182 C   0  0  0  0  0  4           0  0  0
    1.8841   -4.8024    1.4511 C   0  0  0  0  0  4           0  0  0
  1  6  1  0     0  0
  2  7  1  0     0  0
  3  8  1  0     0  0
  4 24  1  0     0  0
  5 25  1  0     0  0
  5 26  1  0     0  0
  5 27  1  0     0  0
  6 15  2  0     0  0
  6 16  1  0     0  0
  7 17  2  0     0  0
  7 18  1  0     0  0
  8 19  2  0     0  0
  8 20  1  0     0  0
  9 10  1  0     0  0
  9 11  2  0     0  0
  9 12  1  0     0  0
 10 13  2  0     0  0
 10 21  1  0     0  0
 11 15  1  0     0  0
 11 24  1  0     0  0
 12 16  2  0     0  0
 12 28  1  0     0  0
 13 17  1  0     0  0
 13 28  1  0     0  0
 14 22  2  0     0  0
 14 23  1  0     0  0
 14 29  1  0     0  0
 18 21  2  0     0  0
 19 22  1  0     0  0
 20 23  2  0     0  0
 24 25  1  0     0  0
 26 30  1  0     0  0
 27 31  1  0     0  0
 28 29  2  0     0  0
 30 32  1  0     0  0
 31 33  1  0     0  0
 32 34  1  0     0  0
 33 35  1  0     0  0
M  END
> <standard_type>
pIC50

> <# Confs.>
25

> <canonical_smiles>
CCCCN(CC(C1=C2C(/C(C3=C2C=CC(Cl)=C3)=C\C4=CC=C(C=C4)Cl)=CC(Cl)=C1)O)CCCC

> <standard_relation>
=

> <Publication_ID>
nan

> <predicted_activity_value>
nan

> <actual_activity_value>
-0.9100905455940682

> <Compound>
Lumefantrine

> <standard_units>
uM

> hash
14311734455146893624

$$$$
29
XXILIB    08252103503D 0   0.00000     0.00000

 35 38  0     1  0            999 V2000
   -4.7928    2.6313   -0.0618 Cl  0  0  0  0  0  1           0  0  0
   -2.7050   -6.2709    4.7277 Cl  0  0  0  0  0  1           0  0  0
   -9.3135   -6.6386    5.1459 Cl  0  0  0  0  0  1           0  0  0
   -0.1637    1.1620    2.1198 O   0  0  0  0  0  2           0  0  0
    1.4617    0.0000    0.0000 N   0  0  2  0  0  3           0  0  0
   -4.1080    1.2450    0.6993 C   0  0  0  0  0  4           0  0  0
   -2.7067   -4.7451    3.9267 C   0  0  0  0  0  4           0  0  0
   -8.4481   -5.3451    4.4083 C   0  0  0  0  0  4           0  0  0
   -2.9350   -0.9927    1.9276 C   0  0  0  0  0  4           0  0  0
   -2.6667   -2.2712    2.6163 C   0  0  0  0  0  4           0  0  0
   -2.0986    0.0001    1.3919 C   0  0  0  0  0  4           0  0  0
   -4.3493   -0.8298    1.8369 C   0  0  0  0  0  4           0  0  0
   -3.8916   -2.9051    2.9633 C   0  0  0  0  0  4           0  0  0
   -7.0396   -3.2494    3.2124 C   0  0  0  0  0  4           0  0  0
   -2.7158    1.1153    0.7768 C   0  0  0  0  0  4           0  0  0
   -4.9413    0.2711    1.2310 C   0  0  0  0  0  4           0  0  0
   -3.9194   -4.1342    3.6118 C   0  0  0  0  0  4           0  0  0
   -1.4919   -4.1387    3.5979 C   0  0  0  0  0  4           0  0  0
   -8.0818   -4.2347    5.1682 C   0  0  0  0  0  4           0  0  0
   -8.1159   -5.4174    3.0559 C   0  0  0  0  0  4           0  0  0
   -1.4716   -2.9031    2.9414 C   0  0  0  0  0  4           0  0  0
   -7.3789   -3.1873    4.5698 C   0  0  0  0  0  4           0  0  0
   -7.4114   -4.3698    2.4587 C   0  0  0  0  0  4           0  0  0
   -0.5935   -0.0000    1.4113 C   0  0  1  0  0  4           0  0  0
    0.0000    0.0000    0.0000 C   0  0  0  0  0  4           0  0  0
    2.0784    0.0000   -1.3291 C   0  0  0  0  0  4           0  0  0
    2.0755   -0.9100    0.9655 C   0  0  0  0  0  4           0  0  0
   -4.9740   -2.0115    2.4879 C   0  0  0  0  0  4           0  0  0
   -6.3093   -2.1527    2.5854 C   0  0  0  0  0  4           0  0  0
    1.6881    1.2222   -2.1645 C   0  0  0  0  0  4           0  0  0
    1.6842   -2.3720    0.7348 C   0  0  0  0  0  4           0  0  0
    2.3068    1.2682   -3.5611 C   0  0  0  0  0  4           0  0  0
    2.3014   -3.3639    1.7200 C   0  0  0  0  0  4           0  0  0
    3.8283    1.2863   -3.5339 C   0  0  0  0  0  4           0  0  0
    1.8841   -4.8024    1.4511 C   0  0  0  0  0  4           0  0  0
  1  6  1  0     0  0
  2  7  1  0     0  0
  3  8  1  0     0  0
  4 24  1  0     0  0
  5 25  1  0     0  0
  5 26  1  0     0  0
  5 27  1  0     0  0
  6 15  2  0     0  0
  6 16  1  0     0  0
  7 17  2  0     0  0
  7 18  1  0     0  0
  8 19  2  0     0  0
  8 20  1  0     0  0
  9 10  1  0     0  0
  9 11  2  0     0  0
  9 12  1  0     0  0
 10 13  2  0     0  0
 10 21  1  0     0  0
 11 15  1  0     0  0
 11 24  1  0     0  0
 12 16  2  0     0  0
 12 28  1  0     0  0
 13 17  1  0     0  0
 13 28  1  0     0  0
 14 22  2  0     0  0
 14 23  1  0     0  0
 14 29  1  0     0  0
 18 21  2  0     0  0
 19 22  1  0     0  0
 20 23  2  0     0  0
 24 25  1  0     0  0
 26 30  1  0     0  0
 27 31  1  0     0  0
 28 29  2  0     0  0
 30 32  1  0     0  0
 31 33  1  0     0  0
 32 34  1  0     0  0
 33 35  1  0     0  0
M  END
> <standard_type>
pIC50

> <# Confs.>
25

> <canonical_smiles>
CCCCN(CC(C1=C2C(/C(C3=C2C=CC(Cl)=C3)=C\C4=CC=C(C=C4)Cl)=CC(Cl)=C1)O)CCCC

> <standard_relation>
=

> <Publication_ID>
nan

> <predicted_activity_value>
nan

> <actual_activity_value>
-0.9100905455940682

> <Compound>
Lumefantrine

> <standard_units>
uM

> hash
14311734455146893624

$$$$
29
XXILIB    08252103503D 0   0.00000     0.00000

 35 38  0     1  0            999 V2000
   -4.7928    2.6313   -0.0618 Cl  0  0  0  0  0  1           0  0  0
   -2.7050   -6.2709    4.7277 Cl  0  0  0  0  0  1           0  0  0
   -9.3135   -6.6386    5.1459 Cl  0  0  0  0  0  1           0  0  0
   -0.1637    1.1620    2.1198 O   0  0  0  0  0  2           0  0  0
    1.4617    0.0000    0.0000 N   0  0  2  0  0  3           0  0  0
   -4.1080    1.2450    0.6993 C   0  0  0  0  0  4           0  0  0
   -2.7067   -4.7451    3.9267 C   0  0  0  0  0  4           0  0  0
   -8.4481   -5.3451    4.4083 C   0  0  0  0  0  4           0  0  0
   -2.9350   -0.9927    1.9276 C   0  0  0  0  0  4           0  0  0
   -2.6667   -2.2712    2.6163 C   0  0  0  0  0  4           0  0  0
   -2.0986    0.0001    1.3919 C   0  0  0  0  0  4           0  0  0
   -4.3493   -0.8298    1.8369 C   0  0  0  0  0  4           0  0  0
   -3.8916   -2.9051    2.9633 C   0  0  0  0  0  4           0  0  0
   -7.0396   -3.2494    3.2124 C   0  0  0  0  0  4           0  0  0
   -2.7158    1.1153    0.7768 C   0  0  0  0  0  4           0  0  0
   -4.9413    0.2711    1.2310 C   0  0  0  0  0  4           0  0  0
   -3.9194   -4.1342    3.6118 C   0  0  0  0  0  4           0  0  0
   -1.4919   -4.1387    3.5979 C   0  0  0  0  0  4           0  0  0
   -8.0818   -4.2347    5.1682 C   0  0  0  0  0  4           0  0  0
   -8.1159   -5.4174    3.0559 C   0  0  0  0  0  4           0  0  0
   -1.4716   -2.9031    2.9414 C   0  0  0  0  0  4           0  0  0
   -7.3789   -3.1873    4.5698 C   0  0  0  0  0  4           0  0  0
   -7.4114   -4.3698    2.4587 C   0  0  0  0  0  4           0  0  0
   -0.5935   -0.0000    1.4113 C   0  0  1  0  0  4           0  0  0
    0.0000    0.0000    0.0000 C   0  0  0  0  0  4           0  0  0
    2.0784    0.0000   -1.3291 C   0  0  0  0  0  4           0  0  0
    2.0755   -0.9100    0.9655 C   0  0  0  0  0  4           0  0  0
   -4.9740   -2.0115    2.4879 C   0  0  0  0  0  4           0  0  0
   -6.3093   -2.1527    2.5854 C   0  0  0  0  0  4           0  0  0
    1.6881    1.2222   -2.1645 C   0  0  0  0  0  4           0  0  0
    1.6842   -2.3720    0.7348 C   0  0  0  0  0  4           0  0  0
    2.3068    1.2682   -3.5611 C   0  0  0  0  0  4           0  0  0
    2.3014   -3.3639    1.7200 C   0  0  0  0  0  4           0  0  0
    1.8904    2.4995   -4.3525 C   0  0  0  0  0  4           0  0  0
    3.8229   -3.3596    1.6890 C   0  0  0  0  0  4           0  0  0
  1  6  1  0     0  0
  2  7  1  0     0  0
  3  8  1  0     0  0
  4 24  1  0     0  0
  5 25  1  0     0  0
  5 26  1  0     0  0
  5 27  1  0     0  0
  6 15  2  0     0  0
  6 16  1  0     0  0
  7 17  2  0     0  0
  7 18  1  0     0  0
  8 19  2  0     0  0
  8 20  1  0     0  0
  9 10  1  0     0  0
  9 11  2  0     0  0
  9 12  1  0     0  0
 10 13  2  0     0  0
 10 21  1  0     0  0
 11 15  1  0     0  0
 11 24  1  0     0  0
 12 16  2  0     0  0
 12 28  1  0     0  0
 13 17  1  0     0  0
 13 28  1  0     0  0
 14 22  2  0     0  0
 14 23  1  0     0  0
 14 29  1  0     0  0
 18 21  2  0     0  0
 19 22  1  0     0  0
 20 23  2  0     0  0
 24 25  1  0     0  0
 26 30  1  0     0  0
 27 31  1  0     0  0
 28 29  2  0     0  0
 30 32  1  0     0  0
 31 33  1  0     0  0
 32 34  1  0     0  0
 33 35  1  0     0  0
M  END
> <standard_type>
pIC50

> <# Confs.>
25

> <canonical_smiles>
CCCCN(CC(C1=C2C(/C(C3=C2C=CC(Cl)=C3)=C\C4=CC=C(C=C4)Cl)=CC(Cl)=C1)O)CCCC

> <standard_relation>
=

> <Publication_ID>
nan

> <predicted_activity_value>
nan

> <actual_activity_value>
-0.9100905455940682

> <Compound>
Lumefantrine

> <standard_units>
uM

> hash
14311734455146893624

$$$$
29
XXILIB    08252103503D 0   0.00000     0.00000

 35 38  0     1  0            999 V2000
   -4.7928    2.6313   -0.0618 Cl  0  0  0  0  0  1           0  0  0
   -2.7050   -6.2709    4.7277 Cl  0  0  0  0  0  1           0  0  0
   -9.3135   -6.6386    5.1459 Cl  0  0  0  0  0  1           0  0  0
   -0.1637    1.1620    2.1198 O   0  0  0  0  0  2           0  0  0
    1.4617    0.0000    0.0000 N   0  0  2  0  0  3           0  0  0
   -4.1080    1.2450    0.6993 C   0  0  0  0  0  4           0  0  0
   -2.7067   -4.7451    3.9267 C   0  0  0  0  0  4           0  0  0
   -8.4481   -5.3451    4.4083 C   0  0  0  0  0  4           0  0  0
   -2.9350   -0.9927    1.9276 C   0  0  0  0  0  4           0  0  0
   -2.6667   -2.2712    2.6163 C   0  0  0  0  0  4           0  0  0
   -2.0986    0.0001    1.3919 C   0  0  0  0  0  4           0  0  0
   -4.3493   -0.8298    1.8369 C   0  0  0  0  0  4           0  0  0
   -3.8916   -2.9051    2.9633 C   0  0  0  0  0  4           0  0  0
   -7.0396   -3.2494    3.2124 C   0  0  0  0  0  4           0  0  0
   -2.7158    1.1153    0.7768 C   0  0  0  0  0  4           0  0  0
   -4.9413    0.2711    1.2310 C   0  0  0  0  0  4           0  0  0
   -3.9194   -4.1342    3.6118 C   0  0  0  0  0  4           0  0  0
   -1.4919   -4.1387    3.5979 C   0  0  0  0  0  4           0  0  0
   -8.0818   -4.2347    5.1682 C   0  0  0  0  0  4           0  0  0
   -8.1159   -5.4174    3.0559 C   0  0  0  0  0  4           0  0  0
   -1.4716   -2.9031    2.9414 C   0  0  0  0  0  4           0  0  0
   -7.3789   -3.1873    4.5698 C   0  0  0  0  0  4           0  0  0
   -7.4114   -4.3698    2.4587 C   0  0  0  0  0  4           0  0  0
   -0.5935   -0.0000    1.4113 C   0  0  1  0  0  4           0  0  0
    0.0000    0.0000    0.0000 C   0  0  0  0  0  4           0  0  0
    2.0784    0.0000   -1.3291 C   0  0  0  0  0  4           0  0  0
    2.0755   -0.9100    0.9655 C   0  0  0  0  0  4           0  0  0
   -4.9740   -2.0115    2.4879 C   0  0  0  0  0  4           0  0  0
   -6.3093   -2.1527    2.5854 C   0  0  0  0  0  4           0  0  0
    1.6881    1.2222   -2.1645 C   0  0  0  0  0  4           0  0  0
    1.6842   -2.3720    0.7348 C   0  0  0  0  0  4           0  0  0
    2.0774    2.5675   -1.5530 C   0  0  0  0  0  4           0  0  0
    2.3014   -3.3639    1.7200 C   0  0  0  0  0  4           0  0  0
    3.5773    2.7075   -1.3374 C   0  0  0  0  0  4           0  0  0
    3.8229   -3.3596    1.6890 C   0  0  0  0  0  4           0  0  0
  1  6  1  0     0  0
  2  7  1  0     0  0
  3  8  1  0     0  0
  4 24  1  0     0  0
  5 25  1  0     0  0
  5 26  1  0     0  0
  5 27  1  0     0  0
  6 15  2  0     0  0
  6 16  1  0     0  0
  7 17  2  0     0  0
  7 18  1  0     0  0
  8 19  2  0     0  0
  8 20  1  0     0  0
  9 10  1  0     0  0
  9 11  2  0     0  0
  9 12  1  0     0  0
 10 13  2  0     0  0
 10 21  1  0     0  0
 11 15  1  0     0  0
 11 24  1  0     0  0
 12 16  2  0     0  0
 12 28  1  0     0  0
 13 17  1  0     0  0
 13 28  1  0     0  0
 14 22  2  0     0  0
 14 23  1  0     0  0
 14 29  1  0     0  0
 18 21  2  0     0  0
 19 22  1  0     0  0
 20 23  2  0     0  0
 24 25  1  0     0  0
 26 30  1  0     0  0
 27 31  1  0     0  0
 28 29  2  0     0  0
 30 32  1  0     0  0
 31 33  1  0     0  0
 32 34  1  0     0  0
 33 35  1  0     0  0
M  END
> <standard_type>
pIC50

> <# Confs.>
25

> <canonical_smiles>
CCCCN(CC(C1=C2C(/C(C3=C2C=CC(Cl)=C3)=C\C4=CC=C(C=C4)Cl)=CC(Cl)=C1)O)CCCC

> <standard_relation>
=

> <Publication_ID>
nan

> <predicted_activity_value>
nan

> <actual_activity_value>
-0.9100905455940682

> <Compound>
Lumefantrine

> <standard_units>
uM

> hash
14311734455146893624

$$$$
29
XXILIB    08252103503D 0   0.00000     0.00000

 35 38  0     1  0            999 V2000
   -4.7783    1.5694   -1.1872 Cl  0  0  0  0  0  1           0  0  0
   -2.7395   -3.7591    7.4150 Cl  0  0  0  0  0  1           0  0  0
   -9.3495   -3.8258    7.9498 Cl  0  0  0  0  0  1           0  0  0
   -0.1637    1.1620    2.1198 O   0  0  0  0  0  2           0  0  0
    1.4617    0.0000    0.0000 N   0  0  2  0  0  3           0  0  0
   -4.1011    0.7450    0.1662 C   0  0  0  0  0  4           0  0  0
   -2.7328   -2.8382    5.9585 C   0  0  0  0  0  4           0  0  0
   -8.4771   -3.0799    6.6658 C   0  0  0  0  0  4           0  0  0
   -2.9405   -0.5864    2.3507 C   0  0  0  0  0  4           0  0  0
   -2.6792   -1.3511    3.5868 C   0  0  0  0  0  4           0  0  0
   -2.0986    0.0001    1.3919 C   0  0  0  0  0  4           0  0  0
   -4.3539   -0.4816    2.1883 C   0  0  0  0  0  4           0  0  0
   -3.9075   -1.7186    4.2022 C   0  0  0  0  0  4           0  0  0
   -7.0572   -1.8720    4.5847 C   0  0  0  0  0  4           0  0  0
   -2.7097    0.6623    0.3005 C   0  0  0  0  0  4           0  0  0
   -4.9398    0.1727    1.1122 C   0  0  0  0  0  4           0  0  0
   -3.9421   -2.4586    5.3783 C   0  0  0  0  0  4           0  0  0
   -1.5147   -2.4852    5.3726 C   0  0  0  0  0  4           0  0  0
   -8.1024   -1.7407    6.7693 C   0  0  0  0  0  4           0  0  0
   -8.1477   -3.8208    5.5312 C   0  0  0  0  0  4           0  0  0
   -1.4876   -1.7435    4.1863 C   0  0  0  0  0  4           0  0  0
   -7.3937   -1.1374    5.7286 C   0  0  0  0  0  4           0  0  0
   -7.4376   -3.2167    4.4915 C   0  0  0  0  0  4           0  0  0
   -0.5935    0.0000    1.4113 C   0  0  1  0  0  4           0  0  0
    0.0000    0.0000    0.0000 C   0  0  0  0  0  4           0  0  0
    2.0784    0.0000   -1.3291 C   0  0  0  0  0  4           0  0  0
    2.0755   -0.9100    0.9655 C   0  0  0  0  0  4           0  0  0
   -4.9850   -1.1755    3.3418 C   0  0  0  0  0  4           0  0  0
   -6.3210   -1.2404    3.4946 C   0  0  0  0  0  4           0  0  0
    1.6881    1.2222   -2.1645 C   0  0  0  0  0  4           0  0  0
    1.6842   -2.3720    0.7348 C   0  0  0  0  0  4           0  0  0
    2.0774    2.5675   -1.5530 C   0  0  0  0  0  4           0  0  0
    2.3014   -3.3639    1.7200 C   0  0  0  0  0  4           0  0  0
    1.6694    3.7510   -2.4182 C   0  0  0  0  0  4           0  0  0
    1.8841   -4.8024    1.4511 C   0  0  0  0  0  4           0  0  0
  1  6  1  0     0  0
  2  7  1  0     0  0
  3  8  1  0     0  0
  4 24  1  0     0  0
  5 25  1  0     0  0
  5 26  1  0     0  0
  5 27  1  0     0  0
  6 15  2  0     0  0
  6 16  1  0     0  0
  7 17  2  0     0  0
  7 18  1  0     0  0
  8 19  2  0     0  0
  8 20  1  0     0  0
  9 10  1  0     0  0
  9 11  2  0     0  0
  9 12  1  0     0  0
 10 13  2  0     0  0
 10 21  1  0     0  0
 11 15  1  0     0  0
 11 24  1  0     0  0
 12 16  2  0     0  0
 12 28  1  0     0  0
 13 17  1  0     0  0
 13 28  1  0     0  0
 14 22  2  0     0  0
 14 23  1  0     0  0
 14 29  1  0     0  0
 18 21  2  0     0  0
 19 22  1  0     0  0
 20 23  2  0     0  0
 24 25  1  0     0  0
 26 30  1  0     0  0
 27 31  1  0     0  0
 28 29  2  0     0  0
 30 32  1  0     0  0
 31 33  1  0     0  0
 32 34  1  0     0  0
 33 35  1  0     0  0
M  END
> <standard_type>
pIC50

> <# Confs.>
25

> <canonical_smiles>
CCCCN(CC(C1=C2C(/C(C3=C2C=CC(Cl)=C3)=C\C4=CC=C(C=C4)Cl)=CC(Cl)=C1)O)CCCC

> <standard_relation>
=

> <Publication_ID>
nan

> <predicted_activity_value>
nan

> <actual_activity_value>
-0.9100905455940682

> <Compound>
Lumefantrine

> <standard_units>
uM

> hash
14311734455146893624

$$$$
29
XXILIB    08252103503D 0   0.00000     0.00000

 35 38  0     1  0            999 V2000
   -4.8296   -2.6310    2.7755 Cl  0  0  0  0  0  1           0  0  0
   -2.6182    6.2711   -1.9585 Cl  0  0  0  0  0  1           0  0  0
   -9.2137    6.6393   -2.5471 Cl  0  0  0  0  0  1           0  0  0
   -0.1637    1.1620    2.1198 O   0  0  0  0  0  2           0  0  0
    1.4617    0.0000    0.0000 N   0  0  2  0  0  3           0  0  0
   -4.1253   -1.2447    2.0323 C   0  0  0  0  0  4           0  0  0
   -2.6407    4.7453   -1.1578 C   0  0  0  0  0  4           0  0  0
   -8.3677    5.3457   -1.7874 C   0  0  0  0  0  4           0  0  0
   -2.9209    0.9929    0.8347 C   0  0  0  0  0  4           0  0  0
   -2.6348    2.2714    0.1532 C   0  0  0  0  0  4           0  0  0
   -2.0986    0.0001    1.3919 C   0  0  0  0  0  4           0  0  0
   -4.3370    0.8301    0.8889 C   0  0  0  0  0  4           0  0  0
   -3.8502    2.9054   -0.2254 C   0  0  0  0  0  4           0  0  0
   -6.9907    3.2500   -0.5555 C   0  0  0  0  0  4           0  0  0
   -2.7316   -1.1151    1.9908 C   0  0  0  0  0  4           0  0  0
   -4.9446   -0.2708    1.4793 C   0  0  0  0  0  4           0  0  0
   -3.8612    4.1344   -0.8744 C   0  0  0  0  0  4           0  0  0
   -1.4348    4.1387   -0.7978 C   0  0  0  0  0  4           0  0  0
   -7.9821    4.2353   -2.5376 C   0  0  0  0  0  4           0  0  0
   -8.0705    5.4180   -0.4268 C   0  0  0  0  0  4           0  0  0
   -1.4316    2.9031   -0.1410 C   0  0  0  0  0  4           0  0  0
   -7.2949    3.1878   -1.9212 C   0  0  0  0  0  4           0  0  0
   -7.3818    4.3704    0.1883 C   0  0  0  0  0  4           0  0  0
   -0.5935   -0.0000    1.4113 C   0  0  1  0  0  4           0  0  0
    0.0000    0.0000    0.0000 C   0  0  0  0  0  4           0  0  0
    2.0784    0.0000   -1.3291 C   0  0  0  0  0  4           0  0  0
    2.0755   -0.9100    0.9655 C   0  0  0  0  0  4           0  0  0
   -4.9446    2.0119    0.2220 C   0  0  0  0  0  4           0  0  0
   -6.2769    2.1532    0.0901 C   0  0  0  0  0  4           0  0  0
    1.6881    1.2222   -2.1645 C   0  0  0  0  0  4           0  0  0
    1.6842   -2.3720    0.7348 C   0  0  0  0  0  4           0  0  0
    2.3068    1.2682   -3.5611 C   0  0  0  0  0  4           0  0  0
    2.3014   -3.3639    1.7200 C   0  0  0  0  0  4           0  0  0
    1.8904    2.4995   -4.3525 C   0  0  0  0  0  4           0  0  0
    1.8841   -4.8024    1.4511 C   0  0  0  0  0  4           0  0  0
  1  6  1  0     0  0
  2  7  1  0     0  0
  3  8  1  0     0  0
  4 24  1  0     0  0
  5 25  1  0     0  0
  5 26  1  0     0  0
  5 27  1  0     0  0
  6 15  2  0     0  0
  6 16  1  0     0  0
  7 17  2  0     0  0
  7 18  1  0     0  0
  8 19  2  0     0  0
  8 20  1  0     0  0
  9 10  1  0     0  0
  9 11  2  0     0  0
  9 12  1  0     0  0
 10 13  2  0     0  0
 10 21  1  0     0  0
 11 15  1  0     0  0
 11 24  1  0     0  0
 12 16  2  0     0  0
 12 28  1  0     0  0
 13 17  1  0     0  0
 13 28  1  0     0  0
 14 22  2  0     0  0
 14 23  1  0     0  0
 14 29  1  0     0  0
 18 21  2  0     0  0
 19 22  1  0     0  0
 20 23  2  0     0  0
 24 25  1  0     0  0
 26 30  1  0     0  0
 27 31  1  0     0  0
 28 29  2  0     0  0
 30 32  1  0     0  0
 31 33  1  0     0  0
 32 34  1  0     0  0
 33 35  1  0     0  0
M  END
> <standard_type>
pIC50

> <# Confs.>
25

> <canonical_smiles>
CCCCN(CC(C1=C2C(/C(C3=C2C=CC(Cl)=C3)=C\C4=CC=C(C=C4)Cl)=CC(Cl)=C1)O)CCCC

> <standard_relation>
=

> <Publication_ID>
nan

> <predicted_activity_value>
nan

> <actual_activity_value>
-0.9100905455940682

> <Compound>
Lumefantrine

> <standard_units>
uM

> hash
14311734455146893624

$$$$
29
XXILIB    08252103503D 0   0.00000     0.00000

 35 38  0     1  0            999 V2000
   -4.7726    0.0871   -1.6309 Cl  0  0  0  0  0  1           0  0  0
   -2.7532   -0.2400    8.4865 Cl  0  0  0  0  0  1           0  0  0
   -9.3625    0.0123    8.9717 Cl  0  0  0  0  0  1           0  0  0
   -0.1637    1.1620    2.1198 O   0  0  0  0  0  2           0  0  0
    1.4617    0.0000    0.0000 N   0  0  2  0  0  3           0  0  0
   -4.0984    0.0453   -0.0454 C   0  0  0  0  0  4           0  0  0
   -2.7431   -0.1707    6.7647 C   0  0  0  0  0  4           0  0  0
   -8.4876    0.0107    7.4883 C   0  0  0  0  0  4           0  0  0
   -2.9426   -0.0230    2.5141 C   0  0  0  0  0  4           0  0  0
   -2.6840   -0.0689    3.9673 C   0  0  0  0  0  4           0  0  0
   -2.0986    0.0001    1.3919 C   0  0  0  0  0  4           0  0  0
   -4.3555   -0.0043    2.3186 C   0  0  0  0  0  4           0  0  0
   -3.9136   -0.0716    4.6820 C   0  0  0  0  0  4           0  0  0
   -7.0636    0.0071    5.0845 C   0  0  0  0  0  4           0  0  0
   -2.7073    0.0319    0.1146 C   0  0  0  0  0  4           0  0  0
   -4.9391    0.0281    1.0584 C   0  0  0  0  0  4           0  0  0
   -3.9509   -0.1243    6.0704 C   0  0  0  0  0  4           0  0  0
   -1.5238   -0.1658    6.0829 C   0  0  0  0  0  4           0  0  0
   -8.1041    1.2198    6.9091 C   0  0  0  0  0  4           0  0  0
   -8.1650   -1.2004    6.8767 C   0  0  0  0  0  4           0  0  0
   -1.4939   -0.1167    4.6847 C   0  0  0  0  0  4           0  0  0
   -7.3933    1.2174    5.7073 C   0  0  0  0  0  4           0  0  0
   -7.4528   -1.2016    5.6754 C   0  0  0  0  0  4           0  0  0
   -0.5935    0.0000    1.4113 C   0  0  1  0  0  4           0  0  0
    0.0000    0.0000    0.0000 C   0  0  0  0  0  4           0  0  0
    2.0784    0.0000   -1.3291 C   0  0  0  0  0  4           0  0  0
    2.0755   -0.9100    0.9655 C   0  0  0  0  0  4           0  0  0
   -4.9891   -0.0244    3.6634 C   0  0  0  0  0  4           0  0  0
   -6.3252    0.0043    3.8259 C   0  0  0  0  0  4           0  0  0
    1.6881    1.2222   -2.1645 C   0  0  0  0  0  4           0  0  0
    1.6842   -2.3720    0.7348 C   0  0  0  0  0  4           0  0  0
    2.0774    2.5675   -1.5530 C   0  0  0  0  0  4           0  0  0
    2.3014   -3.3639    1.7200 C   0  0  0  0  0  4           0  0  0
    1.6694    3.7510   -2.4182 C   0  0  0  0  0  4           0  0  0
    1.8841   -4.8024    1.4511 C   0  0  0  0  0  4           0  0  0
  1  6  1  0     0  0
  2  7  1  0     0  0
  3  8  1  0     0  0
  4 24  1  0     0  0
  5 25  1  0     0  0
  5 26  1  0     0  0
  5 27  1  0     0  0
  6 15  2  0     0  0
  6 16  1  0     0  0
  7 17  2  0     0  0
  7 18  1  0     0  0
  8 19  2  0     0  0
  8 20  1  0     0  0
  9 10  1  0     0  0
  9 11  2  0     0  0
  9 12  1  0     0  0
 10 13  2  0     0  0
 10 21  1  0     0  0
 11 15  1  0     0  0
 11 24  1  0     0  0
 12 16  2  0     0  0
 12 28  1  0     0  0
 13 17  1  0     0  0
 13 28  1  0     0  0
 14 22  2  0     0  0
 14 23  1  0     0  0
 14 29  1  0     0  0
 18 21  2  0     0  0
 19 22  1  0     0  0
 20 23  2  0     0  0
 24 25  1  0     0  0
 26 30  1  0     0  0
 27 31  1  0     0  0
 28 29  2  0     0  0
 30 32  1  0     0  0
 31 33  1  0     0  0
 32 34  1  0     0  0
 33 35  1  0     0  0
M  END
> <standard_type>
pIC50

> <# Confs.>
25

> <canonical_smiles>
CCCCN(CC(C1=C2C(/C(C3=C2C=CC(Cl)=C3)=C\C4=CC=C(C=C4)Cl)=CC(Cl)=C1)O)CCCC

> <standard_relation>
=

> <Publication_ID>
nan

> <predicted_activity_value>
nan

> <actual_activity_value>
-0.9100905455940682

> <Compound>
Lumefantrine

> <standard_units>
uM

> hash
14311734455146893624

$$$$
29
XXILIB    08252103503D 0   0.00000     0.00000

 35 38  0     1  0            999 V2000
   -4.7783    1.5694   -1.1872 Cl  0  0  0  0  0  1           0  0  0
   -2.7395   -3.7591    7.4150 Cl  0  0  0  0  0  1           0  0  0
   -9.3495   -3.8258    7.9498 Cl  0  0  0  0  0  1           0  0  0
   -0.1637    1.1620    2.1198 O   0  0  0  0  0  2           0  0  0
    1.4617    0.0000    0.0000 N   0  0  2  0  0  3           0  0  0
   -4.1011    0.7450    0.1662 C   0  0  0  0  0  4           0  0  0
   -2.7328   -2.8382    5.9585 C   0  0  0  0  0  4           0  0  0
   -8.4771   -3.0799    6.6658 C   0  0  0  0  0  4           0  0  0
   -2.9405   -0.5864    2.3507 C   0  0  0  0  0  4           0  0  0
   -2.6792   -1.3511    3.5868 C   0  0  0  0  0  4           0  0  0
   -2.0986    0.0001    1.3919 C   0  0  0  0  0  4           0  0  0
   -4.3539   -0.4816    2.1883 C   0  0  0  0  0  4           0  0  0
   -3.9075   -1.7186    4.2022 C   0  0  0  0  0  4           0  0  0
   -7.0572   -1.8720    4.5847 C   0  0  0  0  0  4           0  0  0
   -2.7097    0.6623    0.3005 C   0  0  0  0  0  4           0  0  0
   -4.9398    0.1727    1.1122 C   0  0  0  0  0  4           0  0  0
   -3.9421   -2.4586    5.3783 C   0  0  0  0  0  4           0  0  0
   -1.5147   -2.4852    5.3726 C   0  0  0  0  0  4           0  0  0
   -8.1024   -1.7407    6.7693 C   0  0  0  0  0  4           0  0  0
   -8.1477   -3.8208    5.5312 C   0  0  0  0  0  4           0  0  0
   -1.4876   -1.7435    4.1863 C   0  0  0  0  0  4           0  0  0
   -7.3937   -1.1374    5.7286 C   0  0  0  0  0  4           0  0  0
   -7.4376   -3.2167    4.4915 C   0  0  0  0  0  4           0  0  0
   -0.5935    0.0000    1.4113 C   0  0  1  0  0  4           0  0  0
    0.0000    0.0000    0.0000 C   0  0  0  0  0  4           0  0  0
    2.0784    0.0000   -1.3291 C   0  0  0  0  0  4           0  0  0
    2.0755   -0.9100    0.9655 C   0  0  0  0  0  4           0  0  0
   -4.9850   -1.1755    3.3418 C   0  0  0  0  0  4           0  0  0
   -6.3210   -1.2404    3.4946 C   0  0  0  0  0  4           0  0  0
    1.6881    1.2222   -2.1645 C   0  0  0  0  0  4           0  0  0
    1.6842   -2.3720    0.7348 C   0  0  0  0  0  4           0  0  0
    2.3068    1.2682   -3.5611 C   0  0  0  0  0  4           0  0  0
    2.3014   -3.3639    1.7200 C   0  0  0  0  0  4           0  0  0
    3.8283    1.2863   -3.5339 C   0  0  0  0  0  4           0  0  0
    1.8841   -4.8024    1.4511 C   0  0  0  0  0  4           0  0  0
  1  6  1  0     0  0
  2  7  1  0     0  0
  3  8  1  0     0  0
  4 24  1  0     0  0
  5 25  1  0     0  0
  5 26  1  0     0  0
  5 27  1  0     0  0
  6 15  2  0     0  0
  6 16  1  0     0  0
  7 17  2  0     0  0
  7 18  1  0     0  0
  8 19  2  0     0  0
  8 20  1  0     0  0
  9 10  1  0     0  0
  9 11  2  0     0  0
  9 12  1  0     0  0
 10 13  2  0     0  0
 10 21  1  0     0  0
 11 15  1  0     0  0
 11 24  1  0     0  0
 12 16  2  0     0  0
 12 28  1  0     0  0
 13 17  1  0     0  0
 13 28  1  0     0  0
 14 22  2  0     0  0
 14 23  1  0     0  0
 14 29  1  0     0  0
 18 21  2  0     0  0
 19 22  1  0     0  0
 20 23  2  0     0  0
 24 25  1  0     0  0
 26 30  1  0     0  0
 27 31  1  0     0  0
 28 29  2  0     0  0
 30 32  1  0     0  0
 31 33  1  0     0  0
 32 34  1  0     0  0
 33 35  1  0     0  0
M  END
> <standard_type>
pIC50

> <# Confs.>
25

> <canonical_smiles>
CCCCN(CC(C1=C2C(/C(C3=C2C=CC(Cl)=C3)=C\C4=CC=C(C=C4)Cl)=CC(Cl)=C1)O)CCCC

> <standard_relation>
=

> <Publication_ID>
nan

> <predicted_activity_value>
nan

> <actual_activity_value>
-0.9100905455940682

> <Compound>
Lumefantrine

> <standard_units>
uM

> hash
14311734455146893624

$$$$
29
XXILIB    08252103503D 0   0.00000     0.00000

 35 38  0     1  0            999 V2000
   -4.8296   -2.6310    2.7755 Cl  0  0  0  0  0  1           0  0  0
   -2.6182    6.2711   -1.9585 Cl  0  0  0  0  0  1           0  0  0
   -9.2137    6.6393   -2.5471 Cl  0  0  0  0  0  1           0  0  0
   -0.1637    1.1620    2.1198 O   0  0  0  0  0  2           0  0  0
    1.4617    0.0000    0.0000 N   0  0  2  0  0  3           0  0  0
   -4.1253   -1.2447    2.0323 C   0  0  0  0  0  4           0  0  0
   -2.6407    4.7453   -1.1578 C   0  0  0  0  0  4           0  0  0
   -8.3677    5.3457   -1.7874 C   0  0  0  0  0  4           0  0  0
   -2.9209    0.9929    0.8347 C   0  0  0  0  0  4           0  0  0
   -2.6348    2.2714    0.1532 C   0  0  0  0  0  4           0  0  0
   -2.0986    0.0001    1.3919 C   0  0  0  0  0  4           0  0  0
   -4.3370    0.8301    0.8889 C   0  0  0  0  0  4           0  0  0
   -3.8502    2.9054   -0.2254 C   0  0  0  0  0  4           0  0  0
   -6.9907    3.2500   -0.5555 C   0  0  0  0  0  4           0  0  0
   -2.7316   -1.1151    1.9908 C   0  0  0  0  0  4           0  0  0
   -4.9446   -0.2708    1.4793 C   0  0  0  0  0  4           0  0  0
   -3.8612    4.1344   -0.8744 C   0  0  0  0  0  4           0  0  0
   -1.4348    4.1387   -0.7978 C   0  0  0  0  0  4           0  0  0
   -7.9821    4.2353   -2.5376 C   0  0  0  0  0  4           0  0  0
   -8.0705    5.4180   -0.4268 C   0  0  0  0  0  4           0  0  0
   -1.4316    2.9031   -0.1410 C   0  0  0  0  0  4           0  0  0
   -7.2949    3.1878   -1.9212 C   0  0  0  0  0  4           0  0  0
   -7.3818    4.3704    0.1883 C   0  0  0  0  0  4           0  0  0
   -0.5935   -0.0000    1.4113 C   0  0  1  0  0  4           0  0  0
    0.0000    0.0000    0.0000 C   0  0  0  0  0  4           0  0  0
    2.0784    0.0000   -1.3291 C   0  0  0  0  0  4           0  0  0
    2.0755   -0.9100    0.9655 C   0  0  0  0  0  4           0  0  0
   -4.9446    2.0119    0.2220 C   0  0  0  0  0  4           0  0  0
   -6.2769    2.1532    0.0901 C   0  0  0  0  0  4           0  0  0
    1.6881    1.2222   -2.1645 C   0  0  0  0  0  4           0  0  0
    1.6842   -2.3720    0.7348 C   0  0  0  0  0  4           0  0  0
    2.0774    2.5675   -1.5530 C   0  0  0  0  0  4           0  0  0
    2.3014   -3.3639    1.7200 C   0  0  0  0  0  4           0  0  0
    3.5773    2.7075   -1.3374 C   0  0  0  0  0  4           0  0  0
    1.8841   -4.8024    1.4511 C   0  0  0  0  0  4           0  0  0
  1  6  1  0     0  0
  2  7  1  0     0  0
  3  8  1  0     0  0
  4 24  1  0     0  0
  5 25  1  0     0  0
  5 26  1  0     0  0
  5 27  1  0     0  0
  6 15  2  0     0  0
  6 16  1  0     0  0
  7 17  2  0     0  0
  7 18  1  0     0  0
  8 19  2  0     0  0
  8 20  1  0     0  0
  9 10  1  0     0  0
  9 11  2  0     0  0
  9 12  1  0     0  0
 10 13  2  0     0  0
 10 21  1  0     0  0
 11 15  1  0     0  0
 11 24  1  0     0  0
 12 16  2  0     0  0
 12 28  1  0     0  0
 13 17  1  0     0  0
 13 28  1  0     0  0
 14 22  2  0     0  0
 14 23  1  0     0  0
 14 29  1  0     0  0
 18 21  2  0     0  0
 19 22  1  0     0  0
 20 23  2  0     0  0
 24 25  1  0     0  0
 26 30  1  0     0  0
 27 31  1  0     0  0
 28 29  2  0     0  0
 30 32  1  0     0  0
 31 33  1  0     0  0
 32 34  1  0     0  0
 33 35  1  0     0  0
M  END
> <standard_type>
pIC50

> <# Confs.>
25

> <canonical_smiles>
CCCCN(CC(C1=C2C(/C(C3=C2C=CC(Cl)=C3)=C\C4=CC=C(C=C4)Cl)=CC(Cl)=C1)O)CCCC

> <standard_relation>
=

> <Publication_ID>
nan

> <predicted_activity_value>
nan

> <actual_activity_value>
-0.9100905455940682

> <Compound>
Lumefantrine

> <standard_units>
uM

> hash
14311734455146893624

$$$$
29
XXILIB    08252103503D 0   0.00000     0.00000

 35 38  0     1  0            999 V2000
   -4.7783    1.5694   -1.1872 Cl  0  0  0  0  0  1           0  0  0
   -2.7395   -3.7591    7.4150 Cl  0  0  0  0  0  1           0  0  0
   -9.3495   -3.8258    7.9498 Cl  0  0  0  0  0  1           0  0  0
   -0.1637    1.1620    2.1198 O   0  0  0  0  0  2           0  0  0
    1.4617    0.0000    0.0000 N   0  0  2  0  0  3           0  0  0
   -4.1011    0.7450    0.1662 C   0  0  0  0  0  4           0  0  0
   -2.7328   -2.8382    5.9585 C   0  0  0  0  0  4           0  0  0
   -8.4771   -3.0799    6.6658 C   0  0  0  0  0  4           0  0  0
   -2.9405   -0.5864    2.3507 C   0  0  0  0  0  4           0  0  0
   -2.6792   -1.3511    3.5868 C   0  0  0  0  0  4           0  0  0
   -2.0986    0.0001    1.3919 C   0  0  0  0  0  4           0  0  0
   -4.3539   -0.4816    2.1883 C   0  0  0  0  0  4           0  0  0
   -3.9075   -1.7186    4.2022 C   0  0  0  0  0  4           0  0  0
   -7.0572   -1.8720    4.5847 C   0  0  0  0  0  4           0  0  0
   -2.7097    0.6623    0.3005 C   0  0  0  0  0  4           0  0  0
   -4.9398    0.1727    1.1122 C   0  0  0  0  0  4           0  0  0
   -3.9421   -2.4586    5.3783 C   0  0  0  0  0  4           0  0  0
   -1.5147   -2.4852    5.3726 C   0  0  0  0  0  4           0  0  0
   -8.1024   -1.7407    6.7693 C   0  0  0  0  0  4           0  0  0
   -8.1477   -3.8208    5.5312 C   0  0  0  0  0  4           0  0  0
   -1.4876   -1.7435    4.1863 C   0  0  0  0  0  4           0  0  0
   -7.3937   -1.1374    5.7286 C   0  0  0  0  0  4           0  0  0
   -7.4376   -3.2167    4.4915 C   0  0  0  0  0  4           0  0  0
   -0.5935    0.0000    1.4113 C   0  0  1  0  0  4           0  0  0
    0.0000    0.0000    0.0000 C   0  0  0  0  0  4           0  0  0
    2.0784    0.0000   -1.3291 C   0  0  0  0  0  4           0  0  0
    2.0755   -0.9100    0.9655 C   0  0  0  0  0  4           0  0  0
   -4.9850   -1.1755    3.3418 C   0  0  0  0  0  4           0  0  0
   -6.3210   -1.2404    3.4946 C   0  0  0  0  0  4           0  0  0
    1.6881    1.2222   -2.1645 C   0  0  0  0  0  4           0  0  0
    1.6842   -2.3720    0.7348 C   0  0  0  0  0  4           0  0  0
    2.3068    1.2682   -3.5611 C   0  0  0  0  0  4           0  0  0
    2.3014   -3.3639    1.7200 C   0  0  0  0  0  4           0  0  0
    1.8904    2.4995   -4.3525 C   0  0  0  0  0  4           0  0  0
    3.8229   -3.3596    1.6890 C   0  0  0  0  0  4           0  0  0
  1  6  1  0     0  0
  2  7  1  0     0  0
  3  8  1  0     0  0
  4 24  1  0     0  0
  5 25  1  0     0  0
  5 26  1  0     0  0
  5 27  1  0     0  0
  6 15  2  0     0  0
  6 16  1  0     0  0
  7 17  2  0     0  0
  7 18  1  0     0  0
  8 19  2  0     0  0
  8 20  1  0     0  0
  9 10  1  0     0  0
  9 11  2  0     0  0
  9 12  1  0     0  0
 10 13  2  0     0  0
 10 21  1  0     0  0
 11 15  1  0     0  0
 11 24  1  0     0  0
 12 16  2  0     0  0
 12 28  1  0     0  0
 13 17  1  0     0  0
 13 28  1  0     0  0
 14 22  2  0     0  0
 14 23  1  0     0  0
 14 29  1  0     0  0
 18 21  2  0     0  0
 19 22  1  0     0  0
 20 23  2  0     0  0
 24 25  1  0     0  0
 26 30  1  0     0  0
 27 31  1  0     0  0
 28 29  2  0     0  0
 30 32  1  0     0  0
 31 33  1  0     0  0
 32 34  1  0     0  0
 33 35  1  0     0  0
M  END
> <standard_type>
pIC50

> <# Confs.>
25

> <canonical_smiles>
CCCCN(CC(C1=C2C(/C(C3=C2C=CC(Cl)=C3)=C\C4=CC=C(C=C4)Cl)=CC(Cl)=C1)O)CCCC

> <standard_relation>
=

> <Publication_ID>
nan

> <predicted_activity_value>
nan

> <actual_activity_value>
-0.9100905455940682

> <Compound>
Lumefantrine

> <standard_units>
uM

> hash
14311734455146893624

$$$$
29
XXILIB    08252103503D 0   0.00000     0.00000

 35 38  0     1  0            999 V2000
   -4.7783    1.5694   -1.1872 Cl  0  0  0  0  0  1           0  0  0
   -2.7395   -3.7591    7.4150 Cl  0  0  0  0  0  1           0  0  0
   -9.3495   -3.8258    7.9498 Cl  0  0  0  0  0  1           0  0  0
   -0.1637    1.1620    2.1198 O   0  0  0  0  0  2           0  0  0
    1.4617    0.0000    0.0000 N   0  0  2  0  0  3           0  0  0
   -4.1011    0.7450    0.1662 C   0  0  0  0  0  4           0  0  0
   -2.7328   -2.8382    5.9585 C   0  0  0  0  0  4           0  0  0
   -8.4771   -3.0799    6.6658 C   0  0  0  0  0  4           0  0  0
   -2.9405   -0.5864    2.3507 C   0  0  0  0  0  4           0  0  0
   -2.6792   -1.3511    3.5868 C   0  0  0  0  0  4           0  0  0
   -2.0986    0.0001    1.3919 C   0  0  0  0  0  4           0  0  0
   -4.3539   -0.4816    2.1883 C   0  0  0  0  0  4           0  0  0
   -3.9075   -1.7186    4.2022 C   0  0  0  0  0  4           0  0  0
   -7.0572   -1.8720    4.5847 C   0  0  0  0  0  4           0  0  0
   -2.7097    0.6623    0.3005 C   0  0  0  0  0  4           0  0  0
   -4.9398    0.1727    1.1122 C   0  0  0  0  0  4           0  0  0
   -3.9421   -2.4586    5.3783 C   0  0  0  0  0  4           0  0  0
   -1.5147   -2.4852    5.3726 C   0  0  0  0  0  4           0  0  0
   -8.1024   -1.7407    6.7693 C   0  0  0  0  0  4           0  0  0
   -8.1477   -3.8208    5.5312 C   0  0  0  0  0  4           0  0  0
   -1.4876   -1.7435    4.1863 C   0  0  0  0  0  4           0  0  0
   -7.3937   -1.1374    5.7286 C   0  0  0  0  0  4           0  0  0
   -7.4376   -3.2167    4.4915 C   0  0  0  0  0  4           0  0  0
   -0.5935    0.0000    1.4113 C   0  0  1  0  0  4           0  0  0
    0.0000    0.0000    0.0000 C   0  0  0  0  0  4           0  0  0
    2.0784    0.0000   -1.3291 C   0  0  0  0  0  4           0  0  0
    2.0755   -0.9100    0.9655 C   0  0  0  0  0  4           0  0  0
   -4.9850   -1.1755    3.3418 C   0  0  0  0  0  4           0  0  0
   -6.3210   -1.2404    3.4946 C   0  0  0  0  0  4           0  0  0
    1.6881    1.2222   -2.1645 C   0  0  0  0  0  4           0  0  0
    1.6842   -2.3720    0.7348 C   0  0  0  0  0  4           0  0  0
    2.0774    2.5675   -1.5530 C   0  0  0  0  0  4           0  0  0
    2.3014   -3.3639    1.7200 C   0  0  0  0  0  4           0  0  0
    3.5773    2.7075   -1.3374 C   0  0  0  0  0  4           0  0  0
    3.8229   -3.3596    1.6890 C   0  0  0  0  0  4           0  0  0
  1  6  1  0     0  0
  2  7  1  0     0  0
  3  8  1  0     0  0
  4 24  1  0     0  0
  5 25  1  0     0  0
  5 26  1  0     0  0
  5 27  1  0     0  0
  6 15  2  0     0  0
  6 16  1  0     0  0
  7 17  2  0     0  0
  7 18  1  0     0  0
  8 19  2  0     0  0
  8 20  1  0     0  0
  9 10  1  0     0  0
  9 11  2  0     0  0
  9 12  1  0     0  0
 10 13  2  0     0  0
 10 21  1  0     0  0
 11 15  1  0     0  0
 11 24  1  0     0  0
 12 16  2  0     0  0
 12 28  1  0     0  0
 13 17  1  0     0  0
 13 28  1  0     0  0
 14 22  2  0     0  0
 14 23  1  0     0  0
 14 29  1  0     0  0
 18 21  2  0     0  0
 19 22  1  0     0  0
 20 23  2  0     0  0
 24 25  1  0     0  0
 26 30  1  0     0  0
 27 31  1  0     0  0
 28 29  2  0     0  0
 30 32  1  0     0  0
 31 33  1  0     0  0
 32 34  1  0     0  0
 33 35  1  0     0  0
M  END
> <standard_type>
pIC50

> <# Confs.>
25

> <canonical_smiles>
CCCCN(CC(C1=C2C(/C(C3=C2C=CC(Cl)=C3)=C\C4=CC=C(C=C4)Cl)=CC(Cl)=C1)O)CCCC

> <standard_relation>
=

> <Publication_ID>
nan

> <predicted_activity_value>
nan

> <actual_activity_value>
-0.9100905455940682

> <Compound>
Lumefantrine

> <standard_units>
uM

> hash
14311734455146893624

$$$$
29
XXILIB    08252103503D 0   0.00000     0.00000

 35 38  0     1  0            999 V2000
   -4.8296   -2.6310    2.7755 Cl  0  0  0  0  0  1           0  0  0
   -2.6182    6.2711   -1.9585 Cl  0  0  0  0  0  1           0  0  0
   -9.2137    6.6393   -2.5471 Cl  0  0  0  0  0  1           0  0  0
   -0.1637    1.1620    2.1198 O   0  0  0  0  0  2           0  0  0
    1.4617    0.0000    0.0000 N   0  0  2  0  0  3           0  0  0
   -4.1253   -1.2447    2.0323 C   0  0  0  0  0  4           0  0  0
   -2.6407    4.7453   -1.1578 C   0  0  0  0  0  4           0  0  0
   -8.3677    5.3457   -1.7874 C   0  0  0  0  0  4           0  0  0
   -2.9209    0.9929    0.8347 C   0  0  0  0  0  4           0  0  0
   -2.6348    2.2714    0.1532 C   0  0  0  0  0  4           0  0  0
   -2.0986    0.0001    1.3919 C   0  0  0  0  0  4           0  0  0
   -4.3370    0.8301    0.8889 C   0  0  0  0  0  4           0  0  0
   -3.8502    2.9054   -0.2254 C   0  0  0  0  0  4           0  0  0
   -6.9907    3.2500   -0.5555 C   0  0  0  0  0  4           0  0  0
   -2.7316   -1.1151    1.9908 C   0  0  0  0  0  4           0  0  0
   -4.9446   -0.2708    1.4793 C   0  0  0  0  0  4           0  0  0
   -3.8612    4.1344   -0.8744 C   0  0  0  0  0  4           0  0  0
   -1.4348    4.1387   -0.7978 C   0  0  0  0  0  4           0  0  0
   -7.9821    4.2353   -2.5376 C   0  0  0  0  0  4           0  0  0
   -8.0705    5.4180   -0.4268 C   0  0  0  0  0  4           0  0  0
   -1.4316    2.9031   -0.1410 C   0  0  0  0  0  4           0  0  0
   -7.2949    3.1878   -1.9212 C   0  0  0  0  0  4           0  0  0
   -7.3818    4.3704    0.1883 C   0  0  0  0  0  4           0  0  0
   -0.5935   -0.0000    1.4113 C   0  0  1  0  0  4           0  0  0
    0.0000    0.0000    0.0000 C   0  0  0  0  0  4           0  0  0
    2.0784    0.0000   -1.3291 C   0  0  0  0  0  4           0  0  0
    2.0755   -0.9100    0.9655 C   0  0  0  0  0  4           0  0  0
   -4.9446    2.0119    0.2220 C   0  0  0  0  0  4           0  0  0
   -6.2769    2.1532    0.0901 C   0  0  0  0  0  4           0  0  0
    1.6881    1.2222   -2.1645 C   0  0  0  0  0  4           0  0  0
    1.6842   -2.3720    0.7348 C   0  0  0  0  0  4           0  0  0
    2.3068    1.2682   -3.5611 C   0  0  0  0  0  4           0  0  0
    2.3014   -3.3639    1.7200 C   0  0  0  0  0  4           0  0  0
    3.8283    1.2863   -3.5339 C   0  0  0  0  0  4           0  0  0
    3.8229   -3.3596    1.6890 C   0  0  0  0  0  4           0  0  0
  1  6  1  0     0  0
  2  7  1  0     0  0
  3  8  1  0     0  0
  4 24  1  0     0  0
  5 25  1  0     0  0
  5 26  1  0     0  0
  5 27  1  0     0  0
  6 15  2  0     0  0
  6 16  1  0     0  0
  7 17  2  0     0  0
  7 18  1  0     0  0
  8 19  2  0     0  0
  8 20  1  0     0  0
  9 10  1  0     0  0
  9 11  2  0     0  0
  9 12  1  0     0  0
 10 13  2  0     0  0
 10 21  1  0     0  0
 11 15  1  0     0  0
 11 24  1  0     0  0
 12 16  2  0     0  0
 12 28  1  0     0  0
 13 17  1  0     0  0
 13 28  1  0     0  0
 14 22  2  0     0  0
 14 23  1  0     0  0
 14 29  1  0     0  0
 18 21  2  0     0  0
 19 22  1  0     0  0
 20 23  2  0     0  0
 24 25  1  0     0  0
 26 30  1  0     0  0
 27 31  1  0     0  0
 28 29  2  0     0  0
 30 32  1  0     0  0
 31 33  1  0     0  0
 32 34  1  0     0  0
 33 35  1  0     0  0
M  END
> <standard_type>
pIC50

> <# Confs.>
25

> <canonical_smiles>
CCCCN(CC(C1=C2C(/C(C3=C2C=CC(Cl)=C3)=C\C4=CC=C(C=C4)Cl)=CC(Cl)=C1)O)CCCC

> <standard_relation>
=

> <Publication_ID>
nan

> <predicted_activity_value>
nan

> <actual_activity_value>
-0.9100905455940682

> <Compound>
Lumefantrine

> <standard_units>
uM

> hash
14311734455146893624

$$$$
29
XXILIB    08252103503D 0   0.00000     0.00000

 35 38  0     1  0            999 V2000
   -4.8296   -2.6310    2.7755 Cl  0  0  0  0  0  1           0  0  0
   -2.6182    6.2711   -1.9585 Cl  0  0  0  0  0  1           0  0  0
   -9.2137    6.6393   -2.5471 Cl  0  0  0  0  0  1           0  0  0
   -0.1637    1.1620    2.1198 O   0  0  0  0  0  2           0  0  0
    1.4617    0.0000    0.0000 N   0  0  2  0  0  3           0  0  0
   -4.1253   -1.2447    2.0323 C   0  0  0  0  0  4           0  0  0
   -2.6407    4.7453   -1.1578 C   0  0  0  0  0  4           0  0  0
   -8.3677    5.3457   -1.7874 C   0  0  0  0  0  4           0  0  0
   -2.9209    0.9929    0.8347 C   0  0  0  0  0  4           0  0  0
   -2.6348    2.2714    0.1532 C   0  0  0  0  0  4           0  0  0
   -2.0986    0.0001    1.3919 C   0  0  0  0  0  4           0  0  0
   -4.3370    0.8301    0.8889 C   0  0  0  0  0  4           0  0  0
   -3.8502    2.9054   -0.2254 C   0  0  0  0  0  4           0  0  0
   -6.9907    3.2500   -0.5555 C   0  0  0  0  0  4           0  0  0
   -2.7316   -1.1151    1.9908 C   0  0  0  0  0  4           0  0  0
   -4.9446   -0.2708    1.4793 C   0  0  0  0  0  4           0  0  0
   -3.8612    4.1344   -0.8744 C   0  0  0  0  0  4           0  0  0
   -1.4348    4.1387   -0.7978 C   0  0  0  0  0  4           0  0  0
   -7.9821    4.2353   -2.5376 C   0  0  0  0  0  4           0  0  0
   -8.0705    5.4180   -0.4268 C   0  0  0  0  0  4           0  0  0
   -1.4316    2.9031   -0.1410 C   0  0  0  0  0  4           0  0  0
   -7.2949    3.1878   -1.9212 C   0  0  0  0  0  4           0  0  0
   -7.3818    4.3704    0.1883 C   0  0  0  0  0  4           0  0  0
   -0.5935   -0.0000    1.4113 C   0  0  1  0  0  4           0  0  0
    0.0000    0.0000    0.0000 C   0  0  0  0  0  4           0  0  0
    2.0784    0.0000   -1.3291 C   0  0  0  0  0  4           0  0  0
    2.0755   -0.9100    0.9655 C   0  0  0  0  0  4           0  0  0
   -4.9446    2.0119    0.2220 C   0  0  0  0  0  4           0  0  0
   -6.2769    2.1532    0.0901 C   0  0  0  0  0  4           0  0  0
    1.6881    1.2222   -2.1645 C   0  0  0  0  0  4           0  0  0
    1.6842   -2.3720    0.7348 C   0  0  0  0  0  4           0  0  0
    2.3068    1.2682   -3.5611 C   0  0  0  0  0  4           0  0  0
    2.3014   -3.3639    1.7200 C   0  0  0  0  0  4           0  0  0
    1.9205    0.0721   -4.4190 C   0  0  0  0  0  4           0  0  0
    1.9142   -3.0817    3.1644 C   0  0  0  0  0  4           0  0  0
  1  6  1  0     0  0
  2  7  1  0     0  0
  3  8  1  0     0  0
  4 24  1  0     0  0
  5 25  1  0     0  0
  5 26  1  0     0  0
  5 27  1  0     0  0
  6 15  2  0     0  0
  6 16  1  0     0  0
  7 17  2  0     0  0
  7 18  1  0     0  0
  8 19  2  0     0  0
  8 20  1  0     0  0
  9 10  1  0     0  0
  9 11  2  0     0  0
  9 12  1  0     0  0
 10 13  2  0     0  0
 10 21  1  0     0  0
 11 15  1  0     0  0
 11 24  1  0     0  0
 12 16  2  0     0  0
 12 28  1  0     0  0
 13 17  1  0     0  0
 13 28  1  0     0  0
 14 22  2  0     0  0
 14 23  1  0     0  0
 14 29  1  0     0  0
 18 21  2  0     0  0
 19 22  1  0     0  0
 20 23  2  0     0  0
 24 25  1  0     0  0
 26 30  1  0     0  0
 27 31  1  0     0  0
 28 29  2  0     0  0
 30 32  1  0     0  0
 31 33  1  0     0  0
 32 34  1  0     0  0
 33 35  1  0     0  0
M  END
> <standard_type>
pIC50

> <# Confs.>
25

> <canonical_smiles>
CCCCN(CC(C1=C2C(/C(C3=C2C=CC(Cl)=C3)=C\C4=CC=C(C=C4)Cl)=CC(Cl)=C1)O)CCCC

> <standard_relation>
=

> <Publication_ID>
nan

> <predicted_activity_value>
nan

> <actual_activity_value>
-0.9100905455940682

> <Compound>
Lumefantrine

> <standard_units>
uM

> hash
14311734455146893624

$$$$
29
XXILIB    08252103503D 0   0.00000     0.00000

 35 38  0     1  0            999 V2000
   -4.7726    0.0871   -1.6309 Cl  0  0  0  0  0  1           0  0  0
   -2.7532   -0.2400    8.4865 Cl  0  0  0  0  0  1           0  0  0
   -9.3625    0.0123    8.9717 Cl  0  0  0  0  0  1           0  0  0
   -0.1637    1.1620    2.1198 O   0  0  0  0  0  2           0  0  0
    1.4617    0.0000    0.0000 N   0  0  2  0  0  3           0  0  0
   -4.0984    0.0453   -0.0454 C   0  0  0  0  0  4           0  0  0
   -2.7431   -0.1707    6.7647 C   0  0  0  0  0  4           0  0  0
   -8.4876    0.0107    7.4883 C   0  0  0  0  0  4           0  0  0
   -2.9426   -0.0230    2.5141 C   0  0  0  0  0  4           0  0  0
   -2.6840   -0.0689    3.9673 C   0  0  0  0  0  4           0  0  0
   -2.0986    0.0001    1.3919 C   0  0  0  0  0  4           0  0  0
   -4.3555   -0.0043    2.3186 C   0  0  0  0  0  4           0  0  0
   -3.9136   -0.0716    4.6820 C   0  0  0  0  0  4           0  0  0
   -7.0636    0.0071    5.0845 C   0  0  0  0  0  4           0  0  0
   -2.7073    0.0319    0.1146 C   0  0  0  0  0  4           0  0  0
   -4.9391    0.0281    1.0584 C   0  0  0  0  0  4           0  0  0
   -3.9509   -0.1243    6.0704 C   0  0  0  0  0  4           0  0  0
   -1.5238   -0.1658    6.0829 C   0  0  0  0  0  4           0  0  0
   -8.1041    1.2198    6.9091 C   0  0  0  0  0  4           0  0  0
   -8.1650   -1.2004    6.8767 C   0  0  0  0  0  4           0  0  0
   -1.4939   -0.1167    4.6847 C   0  0  0  0  0  4           0  0  0
   -7.3933    1.2174    5.7073 C   0  0  0  0  0  4           0  0  0
   -7.4528   -1.2016    5.6754 C   0  0  0  0  0  4           0  0  0
   -0.5935    0.0000    1.4113 C   0  0  1  0  0  4           0  0  0
    0.0000    0.0000    0.0000 C   0  0  0  0  0  4           0  0  0
    2.0784    0.0000   -1.3291 C   0  0  0  0  0  4           0  0  0
    2.0755   -0.9100    0.9655 C   0  0  0  0  0  4           0  0  0
   -4.9891   -0.0244    3.6634 C   0  0  0  0  0  4           0  0  0
   -6.3252    0.0043    3.8259 C   0  0  0  0  0  4           0  0  0
    1.6881    1.2222   -2.1645 C   0  0  0  0  0  4           0  0  0
    1.6842   -2.3720    0.7348 C   0  0  0  0  0  4           0  0  0
    2.3068    1.2682   -3.5611 C   0  0  0  0  0  4           0  0  0
    2.3014   -3.3639    1.7200 C   0  0  0  0  0  4           0  0  0
    1.8904    2.4995   -4.3525 C   0  0  0  0  0  4           0  0  0
    1.9142   -3.0817    3.1644 C   0  0  0  0  0  4           0  0  0
  1  6  1  0     0  0
  2  7  1  0     0  0
  3  8  1  0     0  0
  4 24  1  0     0  0
  5 25  1  0     0  0
  5 26  1  0     0  0
  5 27  1  0     0  0
  6 15  2  0     0  0
  6 16  1  0     0  0
  7 17  2  0     0  0
  7 18  1  0     0  0
  8 19  2  0     0  0
  8 20  1  0     0  0
  9 10  1  0     0  0
  9 11  2  0     0  0
  9 12  1  0     0  0
 10 13  2  0     0  0
 10 21  1  0     0  0
 11 15  1  0     0  0
 11 24  1  0     0  0
 12 16  2  0     0  0
 12 28  1  0     0  0
 13 17  1  0     0  0
 13 28  1  0     0  0
 14 22  2  0     0  0
 14 23  1  0     0  0
 14 29  1  0     0  0
 18 21  2  0     0  0
 19 22  1  0     0  0
 20 23  2  0     0  0
 24 25  1  0     0  0
 26 30  1  0     0  0
 27 31  1  0     0  0
 28 29  2  0     0  0
 30 32  1  0     0  0
 31 33  1  0     0  0
 32 34  1  0     0  0
 33 35  1  0     0  0
M  END
> <standard_type>
pIC50

> <# Confs.>
25

> <canonical_smiles>
CCCCN(CC(C1=C2C(/C(C3=C2C=CC(Cl)=C3)=C\C4=CC=C(C=C4)Cl)=CC(Cl)=C1)O)CCCC

> <standard_relation>
=

> <Publication_ID>
nan

> <predicted_activity_value>
nan

> <actual_activity_value>
-0.9100905455940682

> <Compound>
Lumefantrine

> <standard_units>
uM

> hash
14311734455146893624

$$$$
29
XXILIB    08252103503D 0   0.00000     0.00000

 35 38  0     1  0            999 V2000
   -4.7726    0.0871   -1.6309 Cl  0  0  0  0  0  1           0  0  0
   -2.7532   -0.2400    8.4865 Cl  0  0  0  0  0  1           0  0  0
   -9.3625    0.0123    8.9717 Cl  0  0  0  0  0  1           0  0  0
   -0.1637    1.1620    2.1198 O   0  0  0  0  0  2           0  0  0
    1.4617    0.0000    0.0000 N   0  0  2  0  0  3           0  0  0
   -4.0984    0.0453   -0.0454 C   0  0  0  0  0  4           0  0  0
   -2.7431   -0.1707    6.7647 C   0  0  0  0  0  4           0  0  0
   -8.4876    0.0107    7.4883 C   0  0  0  0  0  4           0  0  0
   -2.9426   -0.0230    2.5141 C   0  0  0  0  0  4           0  0  0
   -2.6840   -0.0689    3.9673 C   0  0  0  0  0  4           0  0  0
   -2.0986    0.0001    1.3919 C   0  0  0  0  0  4           0  0  0
   -4.3555   -0.0043    2.3186 C   0  0  0  0  0  4           0  0  0
   -3.9136   -0.0716    4.6820 C   0  0  0  0  0  4           0  0  0
   -7.0636    0.0071    5.0845 C   0  0  0  0  0  4           0  0  0
   -2.7073    0.0319    0.1146 C   0  0  0  0  0  4           0  0  0
   -4.9391    0.0281    1.0584 C   0  0  0  0  0  4           0  0  0
   -3.9509   -0.1243    6.0704 C   0  0  0  0  0  4           0  0  0
   -1.5238   -0.1658    6.0829 C   0  0  0  0  0  4           0  0  0
   -8.1041    1.2198    6.9091 C   0  0  0  0  0  4           0  0  0
   -8.1650   -1.2004    6.8767 C   0  0  0  0  0  4           0  0  0
   -1.4939   -0.1167    4.6847 C   0  0  0  0  0  4           0  0  0
   -7.3933    1.2174    5.7073 C   0  0  0  0  0  4           0  0  0
   -7.4528   -1.2016    5.6754 C   0  0  0  0  0  4           0  0  0
   -0.5935    0.0000    1.4113 C   0  0  1  0  0  4           0  0  0
    0.0000    0.0000    0.0000 C   0  0  0  0  0  4           0  0  0
    2.0784    0.0000   -1.3291 C   0  0  0  0  0  4           0  0  0
    2.0755   -0.9100    0.9655 C   0  0  0  0  0  4           0  0  0
   -4.9891   -0.0244    3.6634 C   0  0  0  0  0  4           0  0  0
   -6.3252    0.0043    3.8259 C   0  0  0  0  0  4           0  0  0
    1.6881    1.2222   -2.1645 C   0  0  0  0  0  4           0  0  0
    1.6842   -2.3720    0.7348 C   0  0  0  0  0  4           0  0  0
    2.3068    1.2682   -3.5611 C   0  0  0  0  0  4           0  0  0
    2.3014   -3.3639    1.7200 C   0  0  0  0  0  4           0  0  0
    3.8283    1.2863   -3.5339 C   0  0  0  0  0  4           0  0  0
    1.8841   -4.8024    1.4511 C   0  0  0  0  0  4           0  0  0
  1  6  1  0     0  0
  2  7  1  0     0  0
  3  8  1  0     0  0
  4 24  1  0     0  0
  5 25  1  0     0  0
  5 26  1  0     0  0
  5 27  1  0     0  0
  6 15  2  0     0  0
  6 16  1  0     0  0
  7 17  2  0     0  0
  7 18  1  0     0  0
  8 19  2  0     0  0
  8 20  1  0     0  0
  9 10  1  0     0  0
  9 11  2  0     0  0
  9 12  1  0     0  0
 10 13  2  0     0  0
 10 21  1  0     0  0
 11 15  1  0     0  0
 11 24  1  0     0  0
 12 16  2  0     0  0
 12 28  1  0     0  0
 13 17  1  0     0  0
 13 28  1  0     0  0
 14 22  2  0     0  0
 14 23  1  0     0  0
 14 29  1  0     0  0
 18 21  2  0     0  0
 19 22  1  0     0  0
 20 23  2  0     0  0
 24 25  1  0     0  0
 26 30  1  0     0  0
 27 31  1  0     0  0
 28 29  2  0     0  0
 30 32  1  0     0  0
 31 33  1  0     0  0
 32 34  1  0     0  0
 33 35  1  0     0  0
M  END
> <standard_type>
pIC50

> <# Confs.>
25

> <canonical_smiles>
CCCCN(CC(C1=C2C(/C(C3=C2C=CC(Cl)=C3)=C\C4=CC=C(C=C4)Cl)=CC(Cl)=C1)O)CCCC

> <standard_relation>
=

> <Publication_ID>
nan

> <predicted_activity_value>
nan

> <actual_activity_value>
-0.9100905455940682

> <Compound>
Lumefantrine

> <standard_units>
uM

> hash
14311734455146893624

$$$$
29
XXILIB    08252103503D 0   0.00000     0.00000

 35 38  0     1  0            999 V2000
   -4.7726    0.0871   -1.6309 Cl  0  0  0  0  0  1           0  0  0
   -2.7532   -0.2400    8.4865 Cl  0  0  0  0  0  1           0  0  0
   -9.3625    0.0123    8.9717 Cl  0  0  0  0  0  1           0  0  0
   -0.1637    1.1620    2.1198 O   0  0  0  0  0  2           0  0  0
    1.4617    0.0000    0.0000 N   0  0  2  0  0  3           0  0  0
   -4.0984    0.0453   -0.0454 C   0  0  0  0  0  4           0  0  0
   -2.7431   -0.1707    6.7647 C   0  0  0  0  0  4           0  0  0
   -8.4876    0.0107    7.4883 C   0  0  0  0  0  4           0  0  0
   -2.9426   -0.0230    2.5141 C   0  0  0  0  0  4           0  0  0
   -2.6840   -0.0689    3.9673 C   0  0  0  0  0  4           0  0  0
   -2.0986    0.0001    1.3919 C   0  0  0  0  0  4           0  0  0
   -4.3555   -0.0043    2.3186 C   0  0  0  0  0  4           0  0  0
   -3.9136   -0.0716    4.6820 C   0  0  0  0  0  4           0  0  0
   -7.0636    0.0071    5.0845 C   0  0  0  0  0  4           0  0  0
   -2.7073    0.0319    0.1146 C   0  0  0  0  0  4           0  0  0
   -4.9391    0.0281    1.0584 C   0  0  0  0  0  4           0  0  0
   -3.9509   -0.1243    6.0704 C   0  0  0  0  0  4           0  0  0
   -1.5238   -0.1658    6.0829 C   0  0  0  0  0  4           0  0  0
   -8.1041    1.2198    6.9091 C   0  0  0  0  0  4           0  0  0
   -8.1650   -1.2004    6.8767 C   0  0  0  0  0  4           0  0  0
   -1.4939   -0.1167    4.6847 C   0  0  0  0  0  4           0  0  0
   -7.3933    1.2174    5.7073 C   0  0  0  0  0  4           0  0  0
   -7.4528   -1.2016    5.6754 C   0  0  0  0  0  4           0  0  0
   -0.5935    0.0000    1.4113 C   0  0  1  0  0  4           0  0  0
    0.0000    0.0000    0.0000 C   0  0  0  0  0  4           0  0  0
    2.0784    0.0000   -1.3291 C   0  0  0  0  0  4           0  0  0
    2.0755   -0.9100    0.9655 C   0  0  0  0  0  4           0  0  0
   -4.9891   -0.0244    3.6634 C   0  0  0  0  0  4           0  0  0
   -6.3252    0.0043    3.8259 C   0  0  0  0  0  4           0  0  0
    1.6881    1.2222   -2.1645 C   0  0  0  0  0  4           0  0  0
    1.6842   -2.3720    0.7348 C   0  0  0  0  0  4           0  0  0
    2.0774    2.5675   -1.5530 C   0  0  0  0  0  4           0  0  0
    2.3014   -3.3639    1.7200 C   0  0  0  0  0  4           0  0  0
    3.5773    2.7075   -1.3374 C   0  0  0  0  0  4           0  0  0
    1.9142   -3.0817    3.1644 C   0  0  0  0  0  4           0  0  0
  1  6  1  0     0  0
  2  7  1  0     0  0
  3  8  1  0     0  0
  4 24  1  0     0  0
  5 25  1  0     0  0
  5 26  1  0     0  0
  5 27  1  0     0  0
  6 15  2  0     0  0
  6 16  1  0     0  0
  7 17  2  0     0  0
  7 18  1  0     0  0
  8 19  2  0     0  0
  8 20  1  0     0  0
  9 10  1  0     0  0
  9 11  2  0     0  0
  9 12  1  0     0  0
 10 13  2  0     0  0
 10 21  1  0     0  0
 11 15  1  0     0  0
 11 24  1  0     0  0
 12 16  2  0     0  0
 12 28  1  0     0  0
 13 17  1  0     0  0
 13 28  1  0     0  0
 14 22  2  0     0  0
 14 23  1  0     0  0
 14 29  1  0     0  0
 18 21  2  0     0  0
 19 22  1  0     0  0
 20 23  2  0     0  0
 24 25  1  0     0  0
 26 30  1  0     0  0
 27 31  1  0     0  0
 28 29  2  0     0  0
 30 32  1  0     0  0
 31 33  1  0     0  0
 32 34  1  0     0  0
 33 35  1  0     0  0
M  END
> <standard_type>
pIC50

> <# Confs.>
25

> <canonical_smiles>
CCCCN(CC(C1=C2C(/C(C3=C2C=CC(Cl)=C3)=C\C4=CC=C(C=C4)Cl)=CC(Cl)=C1)O)CCCC

> <standard_relation>
=

> <Publication_ID>
nan

> <predicted_activity_value>
nan

> <actual_activity_value>
-0.9100905455940682

> <Compound>
Lumefantrine

> <standard_units>
uM

> hash
14311734455146893624

$$$$
29
XXILIB    08252103503D 0   0.00000     0.00000

 35 38  0     1  0            999 V2000
   -4.8296   -2.6310    2.7755 Cl  0  0  0  0  0  1           0  0  0
   -2.6182    6.2711   -1.9585 Cl  0  0  0  0  0  1           0  0  0
   -9.2137    6.6393   -2.5471 Cl  0  0  0  0  0  1           0  0  0
   -0.1637    1.1620    2.1198 O   0  0  0  0  0  2           0  0  0
    1.4617    0.0000    0.0000 N   0  0  2  0  0  3           0  0  0
   -4.1253   -1.2447    2.0323 C   0  0  0  0  0  4           0  0  0
   -2.6407    4.7453   -1.1578 C   0  0  0  0  0  4           0  0  0
   -8.3677    5.3457   -1.7874 C   0  0  0  0  0  4           0  0  0
   -2.9209    0.9929    0.8347 C   0  0  0  0  0  4           0  0  0
   -2.6348    2.2714    0.1532 C   0  0  0  0  0  4           0  0  0
   -2.0986    0.0001    1.3919 C   0  0  0  0  0  4           0  0  0
   -4.3370    0.8301    0.8889 C   0  0  0  0  0  4           0  0  0
   -3.8502    2.9054   -0.2254 C   0  0  0  0  0  4           0  0  0
   -6.9907    3.2500   -0.5555 C   0  0  0  0  0  4           0  0  0
   -2.7316   -1.1151    1.9908 C   0  0  0  0  0  4           0  0  0
   -4.9446   -0.2708    1.4793 C   0  0  0  0  0  4           0  0  0
   -3.8612    4.1344   -0.8744 C   0  0  0  0  0  4           0  0  0
   -1.4348    4.1387   -0.7978 C   0  0  0  0  0  4           0  0  0
   -7.9821    4.2353   -2.5376 C   0  0  0  0  0  4           0  0  0
   -8.0705    5.4180   -0.4268 C   0  0  0  0  0  4           0  0  0
   -1.4316    2.9031   -0.1410 C   0  0  0  0  0  4           0  0  0
   -7.2949    3.1878   -1.9212 C   0  0  0  0  0  4           0  0  0
   -7.3818    4.3704    0.1883 C   0  0  0  0  0  4           0  0  0
   -0.5935   -0.0000    1.4113 C   0  0  1  0  0  4           0  0  0
    0.0000    0.0000    0.0000 C   0  0  0  0  0  4           0  0  0
    2.0784    0.0000   -1.3291 C   0  0  0  0  0  4           0  0  0
    2.0755   -0.9100    0.9655 C   0  0  0  0  0  4           0  0  0
   -4.9446    2.0119    0.2220 C   0  0  0  0  0  4           0  0  0
   -6.2769    2.1532    0.0901 C   0  0  0  0  0  4           0  0  0
    1.6881    1.2222   -2.1645 C   0  0  0  0  0  4           0  0  0
    1.6842   -2.3720    0.7348 C   0  0  0  0  0  4           0  0  0
    2.0774    2.5675   -1.5530 C   0  0  0  0  0  4           0  0  0
    2.3014   -3.3639    1.7200 C   0  0  0  0  0  4           0  0  0
    1.6694    3.7510   -2.4182 C   0  0  0  0  0  4           0  0  0
    3.8229   -3.3596    1.6890 C   0  0  0  0  0  4           0  0  0
  1  6  1  0     0  0
  2  7  1  0     0  0
  3  8  1  0     0  0
  4 24  1  0     0  0
  5 25  1  0     0  0
  5 26  1  0     0  0
  5 27  1  0     0  0
  6 15  2  0     0  0
  6 16  1  0     0  0
  7 17  2  0     0  0
  7 18  1  0     0  0
  8 19  2  0     0  0
  8 20  1  0     0  0
  9 10  1  0     0  0
  9 11  2  0     0  0
  9 12  1  0     0  0
 10 13  2  0     0  0
 10 21  1  0     0  0
 11 15  1  0     0  0
 11 24  1  0     0  0
 12 16  2  0     0  0
 12 28  1  0     0  0
 13 17  1  0     0  0
 13 28  1  0     0  0
 14 22  2  0     0  0
 14 23  1  0     0  0
 14 29  1  0     0  0
 18 21  2  0     0  0
 19 22  1  0     0  0
 20 23  2  0     0  0
 24 25  1  0     0  0
 26 30  1  0     0  0
 27 31  1  0     0  0
 28 29  2  0     0  0
 30 32  1  0     0  0
 31 33  1  0     0  0
 32 34  1  0     0  0
 33 35  1  0     0  0
M  END
> <standard_type>
pIC50

> <# Confs.>
25

> <canonical_smiles>
CCCCN(CC(C1=C2C(/C(C3=C2C=CC(Cl)=C3)=C\C4=CC=C(C=C4)Cl)=CC(Cl)=C1)O)CCCC

> <standard_relation>
=

> <Publication_ID>
nan

> <predicted_activity_value>
nan

> <actual_activity_value>
-0.9100905455940682

> <Compound>
Lumefantrine

> <standard_units>
uM

> hash
14311734455146893624

$$$$
29
XXILIB    08252103503D 0   0.00000     0.00000

 35 38  0     1  0            999 V2000
   -4.7783    1.5694   -1.1872 Cl  0  0  0  0  0  1           0  0  0
   -2.7395   -3.7591    7.4150 Cl  0  0  0  0  0  1           0  0  0
   -9.3495   -3.8258    7.9498 Cl  0  0  0  0  0  1           0  0  0
   -0.1637    1.1620    2.1198 O   0  0  0  0  0  2           0  0  0
    1.4617    0.0000    0.0000 N   0  0  2  0  0  3           0  0  0
   -4.1011    0.7450    0.1662 C   0  0  0  0  0  4           0  0  0
   -2.7328   -2.8382    5.9585 C   0  0  0  0  0  4           0  0  0
   -8.4771   -3.0799    6.6658 C   0  0  0  0  0  4           0  0  0
   -2.9405   -0.5864    2.3507 C   0  0  0  0  0  4           0  0  0
   -2.6792   -1.3511    3.5868 C   0  0  0  0  0  4           0  0  0
   -2.0986    0.0001    1.3919 C   0  0  0  0  0  4           0  0  0
   -4.3539   -0.4816    2.1883 C   0  0  0  0  0  4           0  0  0
   -3.9075   -1.7186    4.2022 C   0  0  0  0  0  4           0  0  0
   -7.0572   -1.8720    4.5847 C   0  0  0  0  0  4           0  0  0
   -2.7097    0.6623    0.3005 C   0  0  0  0  0  4           0  0  0
   -4.9398    0.1727    1.1122 C   0  0  0  0  0  4           0  0  0
   -3.9421   -2.4586    5.3783 C   0  0  0  0  0  4           0  0  0
   -1.5147   -2.4852    5.3726 C   0  0  0  0  0  4           0  0  0
   -8.1024   -1.7407    6.7693 C   0  0  0  0  0  4           0  0  0
   -8.1477   -3.8208    5.5312 C   0  0  0  0  0  4           0  0  0
   -1.4876   -1.7435    4.1863 C   0  0  0  0  0  4           0  0  0
   -7.3937   -1.1374    5.7286 C   0  0  0  0  0  4           0  0  0
   -7.4376   -3.2167    4.4915 C   0  0  0  0  0  4           0  0  0
   -0.5935    0.0000    1.4113 C   0  0  1  0  0  4           0  0  0
    0.0000    0.0000    0.0000 C   0  0  0  0  0  4           0  0  0
    2.0784    0.0000   -1.3291 C   0  0  0  0  0  4           0  0  0
    2.0755   -0.9100    0.9655 C   0  0  0  0  0  4           0  0  0
   -4.9850   -1.1755    3.3418 C   0  0  0  0  0  4           0  0  0
   -6.3210   -1.2404    3.4946 C   0  0  0  0  0  4           0  0  0
    1.6881    1.2222   -2.1645 C   0  0  0  0  0  4           0  0  0
    1.6842   -2.3720    0.7348 C   0  0  0  0  0  4           0  0  0
    2.3068    1.2682   -3.5611 C   0  0  0  0  0  4           0  0  0
    2.3014   -3.3639    1.7200 C   0  0  0  0  0  4           0  0  0
    1.9205    0.0721   -4.4190 C   0  0  0  0  0  4           0  0  0
    1.9142   -3.0817    3.1644 C   0  0  0  0  0  4           0  0  0
  1  6  1  0     0  0
  2  7  1  0     0  0
  3  8  1  0     0  0
  4 24  1  0     0  0
  5 25  1  0     0  0
  5 26  1  0     0  0
  5 27  1  0     0  0
  6 15  2  0     0  0
  6 16  1  0     0  0
  7 17  2  0     0  0
  7 18  1  0     0  0
  8 19  2  0     0  0
  8 20  1  0     0  0
  9 10  1  0     0  0
  9 11  2  0     0  0
  9 12  1  0     0  0
 10 13  2  0     0  0
 10 21  1  0     0  0
 11 15  1  0     0  0
 11 24  1  0     0  0
 12 16  2  0     0  0
 12 28  1  0     0  0
 13 17  1  0     0  0
 13 28  1  0     0  0
 14 22  2  0     0  0
 14 23  1  0     0  0
 14 29  1  0     0  0
 18 21  2  0     0  0
 19 22  1  0     0  0
 20 23  2  0     0  0
 24 25  1  0     0  0
 26 30  1  0     0  0
 27 31  1  0     0  0
 28 29  2  0     0  0
 30 32  1  0     0  0
 31 33  1  0     0  0
 32 34  1  0     0  0
 33 35  1  0     0  0
M  END
> <standard_type>
pIC50

> <# Confs.>
25

> <canonical_smiles>
CCCCN(CC(C1=C2C(/C(C3=C2C=CC(Cl)=C3)=C\C4=CC=C(C=C4)Cl)=CC(Cl)=C1)O)CCCC

> <standard_relation>
=

> <Publication_ID>
nan

> <predicted_activity_value>
nan

> <actual_activity_value>
-0.9100905455940682

> <Compound>
Lumefantrine

> <standard_units>
uM

> hash
14311734455146893624

$$$$
29
XXILIB    08252103503D 0   0.00000     0.00000

 35 38  0     1  0            999 V2000
   -4.7726    0.0871   -1.6309 Cl  0  0  0  0  0  1           0  0  0
   -2.7532   -0.2400    8.4865 Cl  0  0  0  0  0  1           0  0  0
   -9.3625    0.0123    8.9717 Cl  0  0  0  0  0  1           0  0  0
   -0.1637    1.1620    2.1198 O   0  0  0  0  0  2           0  0  0
    1.4617    0.0000    0.0000 N   0  0  2  0  0  3           0  0  0
   -4.0984    0.0453   -0.0454 C   0  0  0  0  0  4           0  0  0
   -2.7431   -0.1707    6.7647 C   0  0  0  0  0  4           0  0  0
   -8.4876    0.0107    7.4883 C   0  0  0  0  0  4           0  0  0
   -2.9426   -0.0230    2.5141 C   0  0  0  0  0  4           0  0  0
   -2.6840   -0.0689    3.9673 C   0  0  0  0  0  4           0  0  0
   -2.0986    0.0001    1.3919 C   0  0  0  0  0  4           0  0  0
   -4.3555   -0.0043    2.3186 C   0  0  0  0  0  4           0  0  0
   -3.9136   -0.0716    4.6820 C   0  0  0  0  0  4           0  0  0
   -7.0636    0.0071    5.0845 C   0  0  0  0  0  4           0  0  0
   -2.7073    0.0319    0.1146 C   0  0  0  0  0  4           0  0  0
   -4.9391    0.0281    1.0584 C   0  0  0  0  0  4           0  0  0
   -3.9509   -0.1243    6.0704 C   0  0  0  0  0  4           0  0  0
   -1.5238   -0.1658    6.0829 C   0  0  0  0  0  4           0  0  0
   -8.1041    1.2198    6.9091 C   0  0  0  0  0  4           0  0  0
   -8.1650   -1.2004    6.8767 C   0  0  0  0  0  4           0  0  0
   -1.4939   -0.1167    4.6847 C   0  0  0  0  0  4           0  0  0
   -7.3933    1.2174    5.7073 C   0  0  0  0  0  4           0  0  0
   -7.4528   -1.2016    5.6754 C   0  0  0  0  0  4           0  0  0
   -0.5935    0.0000    1.4113 C   0  0  1  0  0  4           0  0  0
    0.0000    0.0000    0.0000 C   0  0  0  0  0  4           0  0  0
    2.0784    0.0000   -1.3291 C   0  0  0  0  0  4           0  0  0
    2.0755   -0.9100    0.9655 C   0  0  0  0  0  4           0  0  0
   -4.9891   -0.0244    3.6634 C   0  0  0  0  0  4           0  0  0
   -6.3252    0.0043    3.8259 C   0  0  0  0  0  4           0  0  0
    1.6881    1.2222   -2.1645 C   0  0  0  0  0  4           0  0  0
    1.6842   -2.3720    0.7348 C   0  0  0  0  0  4           0  0  0
    2.3068    1.2682   -3.5611 C   0  0  0  0  0  4           0  0  0
    2.3014   -3.3639    1.7200 C   0  0  0  0  0  4           0  0  0
    1.9205    0.0721   -4.4190 C   0  0  0  0  0  4           0  0  0
    3.8229   -3.3596    1.6890 C   0  0  0  0  0  4           0  0  0
  1  6  1  0     0  0
  2  7  1  0     0  0
  3  8  1  0     0  0
  4 24  1  0     0  0
  5 25  1  0     0  0
  5 26  1  0     0  0
  5 27  1  0     0  0
  6 15  2  0     0  0
  6 16  1  0     0  0
  7 17  2  0     0  0
  7 18  1  0     0  0
  8 19  2  0     0  0
  8 20  1  0     0  0
  9 10  1  0     0  0
  9 11  2  0     0  0
  9 12  1  0     0  0
 10 13  2  0     0  0
 10 21  1  0     0  0
 11 15  1  0     0  0
 11 24  1  0     0  0
 12 16  2  0     0  0
 12 28  1  0     0  0
 13 17  1  0     0  0
 13 28  1  0     0  0
 14 22  2  0     0  0
 14 23  1  0     0  0
 14 29  1  0     0  0
 18 21  2  0     0  0
 19 22  1  0     0  0
 20 23  2  0     0  0
 24 25  1  0     0  0
 26 30  1  0     0  0
 27 31  1  0     0  0
 28 29  2  0     0  0
 30 32  1  0     0  0
 31 33  1  0     0  0
 32 34  1  0     0  0
 33 35  1  0     0  0
M  END
> <standard_type>
pIC50

> <# Confs.>
25

> <canonical_smiles>
CCCCN(CC(C1=C2C(/C(C3=C2C=CC(Cl)=C3)=C\C4=CC=C(C=C4)Cl)=CC(Cl)=C1)O)CCCC

> <standard_relation>
=

> <Publication_ID>
nan

> <predicted_activity_value>
nan

> <actual_activity_value>
-0.9100905455940682

> <Compound>
Lumefantrine

> <standard_units>
uM

> hash
14311734455146893624

$$$$
29
XXILIB    08252103503D 0   0.00000     0.00000

 35 38  0     1  0            999 V2000
   -0.7515   -5.1625    1.6378 Cl  0  0  0  0  0  1           0  0  0
    3.2147    2.5633    7.2172 Cl  0  0  0  0  0  1           0  0  0
    5.0986   -2.3880   11.2069 Cl  0  0  0  0  0  1           0  0  0
   -2.0189    0.0000    1.3396 O   0  0  0  0  0  2           0  0  0
    1.4617    0.0000    0.0000 N   0  0  2  0  0  3           0  0  0
   -0.2408   -3.6671    2.3257 C   0  0  0  0  0  4           0  0  0
    2.4265    1.5301    6.0854 C   0  0  0  0  0  4           0  0  0
    4.2237   -2.5916    9.7374 C   0  0  0  0  0  4           0  0  0
    0.5651   -1.1996    3.3996 C   0  0  0  0  0  4           0  0  0
    1.1429   -0.1149    4.2184 C   0  0  0  0  0  4           0  0  0
   -0.1699   -1.2080    2.2030 C   0  0  0  0  0  4           0  0  0
    0.8721   -2.4405    4.0327 C   0  0  0  0  0  4           0  0  0
    1.7993   -0.6593    5.3566 C   0  0  0  0  0  4           0  0  0
    2.8050   -2.9165    7.3525 C   0  0  0  0  0  4           0  0  0
   -0.5610   -2.4649    1.6830 C   0  0  0  0  0  4           0  0  0
    0.4805   -3.6670    3.5111 C   0  0  0  0  0  4           0  0  0
    2.4405    0.1508    6.2865 C   0  0  0  0  0  4           0  0  0
    1.7850    2.0863    4.9760 C   0  0  0  0  0  4           0  0  0
    2.8294   -2.5993    9.7569 C   0  0  0  0  0  4           0  0  0
    4.9151   -2.7443    8.5360 C   0  0  0  0  0  4           0  0  0
    1.1449    1.2643    4.0418 C   0  0  0  0  0  4           0  0  0
    2.1210   -2.7627    8.5649 C   0  0  0  0  0  4           0  0  0
    4.2055   -2.9062    7.3442 C   0  0  0  0  0  4           0  0  0
   -0.5935    0.0000    1.4113 C   0  0  1  0  0  4           0  0  0
    0.0000    0.0000    0.0000 C   0  0  0  0  0  4           0  0  0
    2.0784    1.1511    0.6646 C   0  0  0  0  0  4           0  0  0
    2.0755   -0.3811   -1.2708 C   0  0  0  0  0  4           0  0  0
    1.6380   -2.1298    5.2685 C   0  0  0  0  0  4           0  0  0
    2.0651   -3.0924    6.1072 C   0  0  0  0  0  4           0  0  0
    1.6881    2.4856    0.0238 C   0  0  0  0  0  4           0  0  0
    1.6842   -1.7917   -1.7194 C   0  0  0  0  0  4           0  0  0
    2.3068    3.7181    0.6823 C   0  0  0  0  0  4           0  0  0
    2.0742   -2.9047   -0.7476 C   0  0  0  0  0  4           0  0  0
    1.8904    5.0191    0.0117 C   0  0  0  0  0  4           0  0  0
    1.6652   -4.2867   -1.2359 C   0  0  0  0  0  4           0  0  0
  1  6  1  0     0  0
  2  7  1  0     0  0
  3  8  1  0     0  0
  4 24  1  0     0  0
  5 25  1  0     0  0
  5 26  1  0     0  0
  5 27  1  0     0  0
  6 15  2  0     0  0
  6 16  1  0     0  0
  7 17  2  0     0  0
  7 18  1  0     0  0
  8 19  2  0     0  0
  8 20  1  0     0  0
  9 10  1  0     0  0
  9 11  2  0     0  0
  9 12  1  0     0  0
 10 13  2  0     0  0
 10 21  1  0     0  0
 11 15  1  0     0  0
 11 24  1  0     0  0
 12 16  2  0     0  0
 12 28  1  0     0  0
 13 17  1  0     0  0
 13 28  1  0     0  0
 14 22  2  0     0  0
 14 23  1  0     0  0
 14 29  1  0     0  0
 18 21  2  0     0  0
 19 22  1  0     0  0
 20 23  2  0     0  0
 24 25  1  0     0  0
 26 30  1  0     0  0
 27 31  1  0     0  0
 28 29  2  0     0  0
 30 32  1  0     0  0
 31 33  1  0     0  0
 32 34  1  0     0  0
 33 35  1  0     0  0
M  END
> <standard_type>
pIC50

> <# Confs.>
25

> <canonical_smiles>
CCCCN(CC(C1=C2C(/C(C3=C2C=CC(Cl)=C3)=C\C4=CC=C(C=C4)Cl)=CC(Cl)=C1)O)CCCC

> <standard_relation>
=

> <Publication_ID>
nan

> <predicted_activity_value>
nan

> <actual_activity_value>
-0.9100905455940682

> <Compound>
Lumefantrine

> <standard_units>
uM

> hash
14311734455146893624

$$$$
29
XXILIB    08252103503D 0   0.00000     0.00000

 35 38  0     1  0            999 V2000
   -0.7515   -5.1625    1.6378 Cl  0  0  0  0  0  1           0  0  0
    3.2147    2.5633    7.2172 Cl  0  0  0  0  0  1           0  0  0
    5.0986   -2.3880   11.2069 Cl  0  0  0  0  0  1           0  0  0
   -2.0189    0.0000    1.3396 O   0  0  0  0  0  2           0  0  0
    1.4617    0.0000    0.0000 N   0  0  2  0  0  3           0  0  0
   -0.2408   -3.6671    2.3257 C   0  0  0  0  0  4           0  0  0
    2.4265    1.5301    6.0854 C   0  0  0  0  0  4           0  0  0
    4.2237   -2.5916    9.7374 C   0  0  0  0  0  4           0  0  0
    0.5651   -1.1996    3.3996 C   0  0  0  0  0  4           0  0  0
    1.1429   -0.1149    4.2184 C   0  0  0  0  0  4           0  0  0
   -0.1699   -1.2080    2.2030 C   0  0  0  0  0  4           0  0  0
    0.8721   -2.4405    4.0327 C   0  0  0  0  0  4           0  0  0
    1.7993   -0.6593    5.3566 C   0  0  0  0  0  4           0  0  0
    2.8050   -2.9165    7.3525 C   0  0  0  0  0  4           0  0  0
   -0.5610   -2.4649    1.6830 C   0  0  0  0  0  4           0  0  0
    0.4805   -3.6670    3.5111 C   0  0  0  0  0  4           0  0  0
    2.4405    0.1508    6.2865 C   0  0  0  0  0  4           0  0  0
    1.7850    2.0863    4.9760 C   0  0  0  0  0  4           0  0  0
    2.8294   -2.5993    9.7569 C   0  0  0  0  0  4           0  0  0
    4.9151   -2.7443    8.5360 C   0  0  0  0  0  4           0  0  0
    1.1449    1.2643    4.0418 C   0  0  0  0  0  4           0  0  0
    2.1210   -2.7627    8.5649 C   0  0  0  0  0  4           0  0  0
    4.2055   -2.9062    7.3442 C   0  0  0  0  0  4           0  0  0
   -0.5935    0.0000    1.4113 C   0  0  1  0  0  4           0  0  0
    0.0000    0.0000    0.0000 C   0  0  0  0  0  4           0  0  0
    2.0784    1.1511    0.6646 C   0  0  0  0  0  4           0  0  0
    2.0755   -0.3811   -1.2708 C   0  0  0  0  0  4           0  0  0
    1.6380   -2.1298    5.2685 C   0  0  0  0  0  4           0  0  0
    2.0651   -3.0924    6.1072 C   0  0  0  0  0  4           0  0  0
    1.6881    2.4856    0.0238 C   0  0  0  0  0  4           0  0  0
    1.6842   -1.7917   -1.7194 C   0  0  0  0  0  4           0  0  0
    2.3068    3.7181    0.6823 C   0  0  0  0  0  4           0  0  0
    2.3014   -2.2371   -3.0446 C   0  0  0  0  0  4           0  0  0
    1.8904    5.0191    0.0117 C   0  0  0  0  0  4           0  0  0
    1.8841   -3.6437   -3.4485 C   0  0  0  0  0  4           0  0  0
  1  6  1  0     0  0
  2  7  1  0     0  0
  3  8  1  0     0  0
  4 24  1  0     0  0
  5 25  1  0     0  0
  5 26  1  0     0  0
  5 27  1  0     0  0
  6 15  2  0     0  0
  6 16  1  0     0  0
  7 17  2  0     0  0
  7 18  1  0     0  0
  8 19  2  0     0  0
  8 20  1  0     0  0
  9 10  1  0     0  0
  9 11  2  0     0  0
  9 12  1  0     0  0
 10 13  2  0     0  0
 10 21  1  0     0  0
 11 15  1  0     0  0
 11 24  1  0     0  0
 12 16  2  0     0  0
 12 28  1  0     0  0
 13 17  1  0     0  0
 13 28  1  0     0  0
 14 22  2  0     0  0
 14 23  1  0     0  0
 14 29  1  0     0  0
 18 21  2  0     0  0
 19 22  1  0     0  0
 20 23  2  0     0  0
 24 25  1  0     0  0
 26 30  1  0     0  0
 27 31  1  0     0  0
 28 29  2  0     0  0
 30 32  1  0     0  0
 31 33  1  0     0  0
 32 34  1  0     0  0
 33 35  1  0     0  0
M  END
> <standard_type>
pIC50

> <# Confs.>
25

> <canonical_smiles>
CCCCN(CC(C1=C2C(/C(C3=C2C=CC(Cl)=C3)=C\C4=CC=C(C=C4)Cl)=CC(Cl)=C1)O)CCCC

> <standard_relation>
=

> <Publication_ID>
nan

> <predicted_activity_value>
nan

> <actual_activity_value>
-0.9100905455940682

> <Compound>
Lumefantrine

> <standard_units>
uM

> hash
14311734455146893624

$$$$
29
XXILIB    08252103503D 0   0.00000     0.00000

 35 38  0     1  0            999 V2000
    0.6955   -4.9978    1.1148 Cl  0  0  0  0  0  1           0  0  0
   -0.2215    2.1820    8.4740 Cl  0  0  0  0  0  1           0  0  0
    1.3600   -2.8819   12.4537 Cl  0  0  0  0  0  1           0  0  0
   -2.0189    0.0000    1.3396 O   0  0  0  0  0  2           0  0  0
    1.4617    0.0000    0.0000 N   0  0  2  0  0  3           0  0  0
    0.4423   -3.5906    2.0770 C   0  0  0  0  0  4           0  0  0
   -0.1778    1.2379    7.0330 C   0  0  0  0  0  4           0  0  0
    1.2133   -2.9895   10.7410 C   0  0  0  0  0  4           0  0  0
    0.0155   -1.2650    3.5939 C   0  0  0  0  0  4           0  0  0
   -0.1084   -0.2591    4.6680 C   0  0  0  0  0  4           0  0  0
   -0.1699   -1.2080    2.2030 C   0  0  0  0  0  4           0  0  0
    0.4070   -2.5002    4.1905 C   0  0  0  0  0  4           0  0  0
    0.1924   -0.8493    5.9264 C   0  0  0  0  0  4           0  0  0
    0.9747   -3.1586    7.9625 C   0  0  0  0  0  4           0  0  0
    0.0542   -2.3934    1.4629 C   0  0  0  0  0  4           0  0  0
    0.6223   -3.6565    3.4513 C   0  0  0  0  0  4           0  0  0
    0.1623   -0.1120    7.1044 C   0  0  0  0  0  4           0  0  0
   -0.4800    1.8371    5.8077 C   0  0  0  0  0  4           0  0  0
   -0.0142   -3.3252   10.1708 C   0  0  0  0  0  4           0  0  0
    2.3225   -2.7370    9.9344 C   0  0  0  0  0  4           0  0  0
   -0.4437    1.0897    4.6253 C   0  0  0  0  0  4           0  0  0
   -0.1326   -3.4105    8.7823 C   0  0  0  0  0  4           0  0  0
    2.2025   -2.8212    8.5457 C   0  0  0  0  0  4           0  0  0
   -0.5935    0.0000    1.4113 C   0  0  1  0  0  4           0  0  0
   -0.0000    0.0000    0.0000 C   0  0  0  0  0  4           0  0  0
    2.0784    1.1511    0.6646 C   0  0  0  0  0  4           0  0  0
    2.0755   -0.3811   -1.2708 C   0  0  0  0  0  4           0  0  0
    0.5159   -2.2699    5.6552 C   0  0  0  0  0  4           0  0  0
    0.8526   -3.2526    6.5115 C   0  0  0  0  0  4           0  0  0
    1.6881    2.4856    0.0238 C   0  0  0  0  0  4           0  0  0
    1.6842   -1.7917   -1.7194 C   0  0  0  0  0  4           0  0  0
    2.3068    3.7181    0.6823 C   0  0  0  0  0  4           0  0  0
    2.3014   -2.2371   -3.0446 C   0  0  0  0  0  4           0  0  0
    1.8904    5.0191    0.0117 C   0  0  0  0  0  4           0  0  0
    1.8841   -3.6437   -3.4485 C   0  0  0  0  0  4           0  0  0
  1  6  1  0     0  0
  2  7  1  0     0  0
  3  8  1  0     0  0
  4 24  1  0     0  0
  5 25  1  0     0  0
  5 26  1  0     0  0
  5 27  1  0     0  0
  6 15  2  0     0  0
  6 16  1  0     0  0
  7 17  2  0     0  0
  7 18  1  0     0  0
  8 19  2  0     0  0
  8 20  1  0     0  0
  9 10  1  0     0  0
  9 11  2  0     0  0
  9 12  1  0     0  0
 10 13  2  0     0  0
 10 21  1  0     0  0
 11 15  1  0     0  0
 11 24  1  0     0  0
 12 16  2  0     0  0
 12 28  1  0     0  0
 13 17  1  0     0  0
 13 28  1  0     0  0
 14 22  2  0     0  0
 14 23  1  0     0  0
 14 29  1  0     0  0
 18 21  2  0     0  0
 19 22  1  0     0  0
 20 23  2  0     0  0
 24 25  1  0     0  0
 26 30  1  0     0  0
 27 31  1  0     0  0
 28 29  2  0     0  0
 30 32  1  0     0  0
 31 33  1  0     0  0
 32 34  1  0     0  0
 33 35  1  0     0  0
M  END
> <standard_type>
pIC50

> <# Confs.>
25

> <canonical_smiles>
CCCCN(CC(C1=C2C(/C(C3=C2C=CC(Cl)=C3)=C\C4=CC=C(C=C4)Cl)=CC(Cl)=C1)O)CCCC

> <standard_relation>
=

> <Publication_ID>
nan

> <predicted_activity_value>
nan

> <actual_activity_value>
-0.9100905455940682

> <Compound>
Lumefantrine

> <standard_units>
uM

> hash
14311734455146893624

$$$$
29
XXILIB    08252103503D 0   0.00000     0.00000

 35 38  0     1  0            999 V2000
    0.6955   -4.9978    1.1148 Cl  0  0  0  0  0  1           0  0  0
   -0.2215    2.1820    8.4740 Cl  0  0  0  0  0  1           0  0  0
    1.3600   -2.8819   12.4537 Cl  0  0  0  0  0  1           0  0  0
   -2.0189    0.0000    1.3396 O   0  0  0  0  0  2           0  0  0
    1.4617    0.0000    0.0000 N   0  0  2  0  0  3           0  0  0
    0.4423   -3.5906    2.0770 C   0  0  0  0  0  4           0  0  0
   -0.1778    1.2379    7.0330 C   0  0  0  0  0  4           0  0  0
    1.2133   -2.9895   10.7410 C   0  0  0  0  0  4           0  0  0
    0.0155   -1.2650    3.5939 C   0  0  0  0  0  4           0  0  0
   -0.1084   -0.2591    4.6680 C   0  0  0  0  0  4           0  0  0
   -0.1699   -1.2080    2.2030 C   0  0  0  0  0  4           0  0  0
    0.4070   -2.5002    4.1905 C   0  0  0  0  0  4           0  0  0
    0.1924   -0.8493    5.9264 C   0  0  0  0  0  4           0  0  0
    0.9747   -3.1586    7.9625 C   0  0  0  0  0  4           0  0  0
    0.0542   -2.3934    1.4629 C   0  0  0  0  0  4           0  0  0
    0.6223   -3.6565    3.4513 C   0  0  0  0  0  4           0  0  0
    0.1623   -0.1120    7.1044 C   0  0  0  0  0  4           0  0  0
   -0.4800    1.8371    5.8077 C   0  0  0  0  0  4           0  0  0
   -0.0142   -3.3252   10.1708 C   0  0  0  0  0  4           0  0  0
    2.3225   -2.7370    9.9344 C   0  0  0  0  0  4           0  0  0
   -0.4437    1.0897    4.6253 C   0  0  0  0  0  4           0  0  0
   -0.1326   -3.4105    8.7823 C   0  0  0  0  0  4           0  0  0
    2.2025   -2.8212    8.5457 C   0  0  0  0  0  4           0  0  0
   -0.5935    0.0000    1.4113 C   0  0  1  0  0  4           0  0  0
   -0.0000    0.0000    0.0000 C   0  0  0  0  0  4           0  0  0
    2.0784    1.1511    0.6646 C   0  0  0  0  0  4           0  0  0
    2.0755   -0.3811   -1.2708 C   0  0  0  0  0  4           0  0  0
    0.5159   -2.2699    5.6552 C   0  0  0  0  0  4           0  0  0
    0.8526   -3.2526    6.5115 C   0  0  0  0  0  4           0  0  0
    1.6881    2.4856    0.0238 C   0  0  0  0  0  4           0  0  0
    1.6842   -1.7917   -1.7194 C   0  0  0  0  0  4           0  0  0
    2.3068    3.7181    0.6823 C   0  0  0  0  0  4           0  0  0
    2.3014   -2.2371   -3.0446 C   0  0  0  0  0  4           0  0  0
    1.9205    3.8631    2.1470 C   0  0  0  0  0  4           0  0  0
    1.9142   -1.3378   -4.2096 C   0  0  0  0  0  4           0  0  0
  1  6  1  0     0  0
  2  7  1  0     0  0
  3  8  1  0     0  0
  4 24  1  0     0  0
  5 25  1  0     0  0
  5 26  1  0     0  0
  5 27  1  0     0  0
  6 15  2  0     0  0
  6 16  1  0     0  0
  7 17  2  0     0  0
  7 18  1  0     0  0
  8 19  2  0     0  0
  8 20  1  0     0  0
  9 10  1  0     0  0
  9 11  2  0     0  0
  9 12  1  0     0  0
 10 13  2  0     0  0
 10 21  1  0     0  0
 11 15  1  0     0  0
 11 24  1  0     0  0
 12 16  2  0     0  0
 12 28  1  0     0  0
 13 17  1  0     0  0
 13 28  1  0     0  0
 14 22  2  0     0  0
 14 23  1  0     0  0
 14 29  1  0     0  0
 18 21  2  0     0  0
 19 22  1  0     0  0
 20 23  2  0     0  0
 24 25  1  0     0  0
 26 30  1  0     0  0
 27 31  1  0     0  0
 28 29  2  0     0  0
 30 32  1  0     0  0
 31 33  1  0     0  0
 32 34  1  0     0  0
 33 35  1  0     0  0
M  END
> <standard_type>
pIC50

> <# Confs.>
25

> <canonical_smiles>
CCCCN(CC(C1=C2C(/C(C3=C2C=CC(Cl)=C3)=C\C4=CC=C(C=C4)Cl)=CC(Cl)=C1)O)CCCC

> <standard_relation>
=

> <Publication_ID>
nan

> <predicted_activity_value>
nan

> <actual_activity_value>
-0.9100905455940682

> <Compound>
Lumefantrine

> <standard_units>
uM

> hash
14311734455146893624

$$$$
29
XXILIB    08252103503D 0   0.00000     0.00000

 35 38  0     1  0            999 V2000
   -0.7515   -5.1625    1.6378 Cl  0  0  0  0  0  1           0  0  0
    3.2147    2.5633    7.2172 Cl  0  0  0  0  0  1           0  0  0
    5.0986   -2.3880   11.2069 Cl  0  0  0  0  0  1           0  0  0
   -2.0189    0.0000    1.3396 O   0  0  0  0  0  2           0  0  0
    1.4617    0.0000    0.0000 N   0  0  2  0  0  3           0  0  0
   -0.2408   -3.6671    2.3257 C   0  0  0  0  0  4           0  0  0
    2.4265    1.5301    6.0854 C   0  0  0  0  0  4           0  0  0
    4.2237   -2.5916    9.7374 C   0  0  0  0  0  4           0  0  0
    0.5651   -1.1996    3.3996 C   0  0  0  0  0  4           0  0  0
    1.1429   -0.1149    4.2184 C   0  0  0  0  0  4           0  0  0
   -0.1699   -1.2080    2.2030 C   0  0  0  0  0  4           0  0  0
    0.8721   -2.4405    4.0327 C   0  0  0  0  0  4           0  0  0
    1.7993   -0.6593    5.3566 C   0  0  0  0  0  4           0  0  0
    2.8050   -2.9165    7.3525 C   0  0  0  0  0  4           0  0  0
   -0.5610   -2.4649    1.6830 C   0  0  0  0  0  4           0  0  0
    0.4805   -3.6670    3.5111 C   0  0  0  0  0  4           0  0  0
    2.4405    0.1508    6.2865 C   0  0  0  0  0  4           0  0  0
    1.7850    2.0863    4.9760 C   0  0  0  0  0  4           0  0  0
    2.8294   -2.5993    9.7569 C   0  0  0  0  0  4           0  0  0
    4.9151   -2.7443    8.5360 C   0  0  0  0  0  4           0  0  0
    1.1449    1.2643    4.0418 C   0  0  0  0  0  4           0  0  0
    2.1210   -2.7627    8.5649 C   0  0  0  0  0  4           0  0  0
    4.2055   -2.9062    7.3442 C   0  0  0  0  0  4           0  0  0
   -0.5935    0.0000    1.4113 C   0  0  1  0  0  4           0  0  0
    0.0000    0.0000    0.0000 C   0  0  0  0  0  4           0  0  0
    2.0784    1.1511    0.6646 C   0  0  0  0  0  4           0  0  0
    2.0755   -0.3811   -1.2708 C   0  0  0  0  0  4           0  0  0
    1.6380   -2.1298    5.2685 C   0  0  0  0  0  4           0  0  0
    2.0651   -3.0924    6.1072 C   0  0  0  0  0  4           0  0  0
    1.6881    2.4856    0.0238 C   0  0  0  0  0  4           0  0  0
    1.6842   -1.7917   -1.7194 C   0  0  0  0  0  4           0  0  0
    2.3068    3.7181    0.6823 C   0  0  0  0  0  4           0  0  0
    2.0742   -2.9047   -0.7476 C   0  0  0  0  0  4           0  0  0
    3.8283    3.7036    0.6529 C   0  0  0  0  0  4           0  0  0
    3.5744   -2.9774   -0.5025 C   0  0  0  0  0  4           0  0  0
  1  6  1  0     0  0
  2  7  1  0     0  0
  3  8  1  0     0  0
  4 24  1  0     0  0
  5 25  1  0     0  0
  5 26  1  0     0  0
  5 27  1  0     0  0
  6 15  2  0     0  0
  6 16  1  0     0  0
  7 17  2  0     0  0
  7 18  1  0     0  0
  8 19  2  0     0  0
  8 20  1  0     0  0
  9 10  1  0     0  0
  9 11  2  0     0  0
  9 12  1  0     0  0
 10 13  2  0     0  0
 10 21  1  0     0  0
 11 15  1  0     0  0
 11 24  1  0     0  0
 12 16  2  0     0  0
 12 28  1  0     0  0
 13 17  1  0     0  0
 13 28  1  0     0  0
 14 22  2  0     0  0
 14 23  1  0     0  0
 14 29  1  0     0  0
 18 21  2  0     0  0
 19 22  1  0     0  0
 20 23  2  0     0  0
 24 25  1  0     0  0
 26 30  1  0     0  0
 27 31  1  0     0  0
 28 29  2  0     0  0
 30 32  1  0     0  0
 31 33  1  0     0  0
 32 34  1  0     0  0
 33 35  1  0     0  0
M  END
> <standard_type>
pIC50

> <# Confs.>
25

> <canonical_smiles>
CCCCN(CC(C1=C2C(/C(C3=C2C=CC(Cl)=C3)=C\C4=CC=C(C=C4)Cl)=CC(Cl)=C1)O)CCCC

> <standard_relation>
=

> <Publication_ID>
nan

> <predicted_activity_value>
nan

> <actual_activity_value>
-0.9100905455940682

> <Compound>
Lumefantrine

> <standard_units>
uM

> hash
14311734455146893624

$$$$
29
XXILIB    08252103503D 0   0.00000     0.00000

 35 38  0     1  0            999 V2000
   -0.7515   -5.1625    1.6378 Cl  0  0  0  0  0  1           0  0  0
    3.2147    2.5633    7.2172 Cl  0  0  0  0  0  1           0  0  0
    5.0986   -2.3880   11.2069 Cl  0  0  0  0  0  1           0  0  0
   -2.0189    0.0000    1.3396 O   0  0  0  0  0  2           0  0  0
    1.4617    0.0000    0.0000 N   0  0  2  0  0  3           0  0  0
   -0.2408   -3.6671    2.3257 C   0  0  0  0  0  4           0  0  0
    2.4265    1.5301    6.0854 C   0  0  0  0  0  4           0  0  0
    4.2237   -2.5916    9.7374 C   0  0  0  0  0  4           0  0  0
    0.5651   -1.1996    3.3996 C   0  0  0  0  0  4           0  0  0
    1.1429   -0.1149    4.2184 C   0  0  0  0  0  4           0  0  0
   -0.1699   -1.2080    2.2030 C   0  0  0  0  0  4           0  0  0
    0.8721   -2.4405    4.0327 C   0  0  0  0  0  4           0  0  0
    1.7993   -0.6593    5.3566 C   0  0  0  0  0  4           0  0  0
    2.8050   -2.9165    7.3525 C   0  0  0  0  0  4           0  0  0
   -0.5610   -2.4649    1.6830 C   0  0  0  0  0  4           0  0  0
    0.4805   -3.6670    3.5111 C   0  0  0  0  0  4           0  0  0
    2.4405    0.1508    6.2865 C   0  0  0  0  0  4           0  0  0
    1.7850    2.0863    4.9760 C   0  0  0  0  0  4           0  0  0
    2.8294   -2.5993    9.7569 C   0  0  0  0  0  4           0  0  0
    4.9151   -2.7443    8.5360 C   0  0  0  0  0  4           0  0  0
    1.1449    1.2643    4.0418 C   0  0  0  0  0  4           0  0  0
    2.1210   -2.7627    8.5649 C   0  0  0  0  0  4           0  0  0
    4.2055   -2.9062    7.3442 C   0  0  0  0  0  4           0  0  0
   -0.5935    0.0000    1.4113 C   0  0  1  0  0  4           0  0  0
    0.0000    0.0000    0.0000 C   0  0  0  0  0  4           0  0  0
    2.0784    1.1511    0.6646 C   0  0  0  0  0  4           0  0  0
    2.0755   -0.3811   -1.2708 C   0  0  0  0  0  4           0  0  0
    1.6380   -2.1298    5.2685 C   0  0  0  0  0  4           0  0  0
    2.0651   -3.0924    6.1072 C   0  0  0  0  0  4           0  0  0
    1.6881    2.4856    0.0238 C   0  0  0  0  0  4           0  0  0
    1.6842   -1.7917   -1.7194 C   0  0  0  0  0  4           0  0  0
    2.3068    3.7181    0.6823 C   0  0  0  0  0  4           0  0  0
    2.3014   -2.2371   -3.0446 C   0  0  0  0  0  4           0  0  0
    3.8283    3.7036    0.6529 C   0  0  0  0  0  4           0  0  0
    1.9142   -1.3378   -4.2096 C   0  0  0  0  0  4           0  0  0
  1  6  1  0     0  0
  2  7  1  0     0  0
  3  8  1  0     0  0
  4 24  1  0     0  0
  5 25  1  0     0  0
  5 26  1  0     0  0
  5 27  1  0     0  0
  6 15  2  0     0  0
  6 16  1  0     0  0
  7 17  2  0     0  0
  7 18  1  0     0  0
  8 19  2  0     0  0
  8 20  1  0     0  0
  9 10  1  0     0  0
  9 11  2  0     0  0
  9 12  1  0     0  0
 10 13  2  0     0  0
 10 21  1  0     0  0
 11 15  1  0     0  0
 11 24  1  0     0  0
 12 16  2  0     0  0
 12 28  1  0     0  0
 13 17  1  0     0  0
 13 28  1  0     0  0
 14 22  2  0     0  0
 14 23  1  0     0  0
 14 29  1  0     0  0
 18 21  2  0     0  0
 19 22  1  0     0  0
 20 23  2  0     0  0
 24 25  1  0     0  0
 26 30  1  0     0  0
 27 31  1  0     0  0
 28 29  2  0     0  0
 30 32  1  0     0  0
 31 33  1  0     0  0
 32 34  1  0     0  0
 33 35  1  0     0  0
M  END
> <standard_type>
pIC50

> <# Confs.>
25

> <canonical_smiles>
CCCCN(CC(C1=C2C(/C(C3=C2C=CC(Cl)=C3)=C\C4=CC=C(C=C4)Cl)=CC(Cl)=C1)O)CCCC

> <standard_relation>
=

> <Publication_ID>
nan

> <predicted_activity_value>
nan

> <actual_activity_value>
-0.9100905455940682

> <Compound>
Lumefantrine

> <standard_units>
uM

> hash
14311734455146893624

$$$$
10
XXILIB    08252103503D 0   0.00000     0.00000

 23 26  0     1  0            999 V2000
   -2.9983    2.1893    5.1750 Cl  0  0  0  0  0  1           0  0  0
   -3.1069    0.1861   -0.3860 N   0  0  0  0  0  3           0  0  0
   -0.5903    0.0000    1.2568 N   0  0  0  0  0  3           0  0  0
    1.3979    0.0000    0.0000 N   0  0  1  0  0  3           0  0  0
    4.2547   -0.0126    0.0584 N   0  0  1  0  0  3           0  0  0
   -2.9880    1.6295    3.5478 C   0  0  0  0  0  4           0  0  0
   -2.1935   -0.1122   -1.2477 C   0  0  0  0  0  4           0  0  0
   -2.9362    0.6970    0.8957 C   0  0  0  0  0  4           0  0  0
   -1.8046    0.5432    1.6937 C   0  0  0  0  0  4           0  0  0
   -0.6790   -0.0336   -1.1838 C   0  0  0  0  0  4           0  0  0
   -1.8513    1.0112    3.0288 C   0  0  0  0  0  4           0  0  0
   -4.1069    1.7962    2.7502 C   0  0  0  0  0  4           0  0  0
   -2.7576   -0.5934   -2.5560 C   0  0  0  0  0  4           0  0  0
   -4.0762    1.3255    1.4396 C   0  0  0  0  0  4           0  0  0
    0.0241   -0.1289   -2.4722 C   0  0  0  0  0  4           0  0  0
   -1.9953   -0.7350   -3.6425 C   0  0  0  0  0  4           0  0  0
   -0.5937   -0.4450   -3.6159 C   0  0  0  0  0  4           0  0  0
    0.0000    0.0000   -0.0000 C   0  0  0  0  0  4           0  0  0
    2.1281    1.1017    0.6361 C   0  0  0  0  0  4           0  0  0
    2.1290   -1.2719   -0.0096 C   0  0  0  0  0  4           0  0  0
    3.5089    1.2524   -0.0034 C   0  0  0  0  0  4           0  0  0
    3.5128   -1.0775   -0.6318 C   0  0  0  0  0  4           0  0  0
    5.5858    0.1478   -0.5260 C   0  0  0  0  0  4           0  0  0
  1  6  1  0     0  0
  2  7  2  0     0  0
  2  8  1  0     0  0
  3  9  1  0     0  0
  3 18  1  0     0  0
  4 18  1  0     0  0
  4 19  1  0     0  0
  4 20  1  0     0  0
  5 21  1  0     0  0
  5 22  1  0     0  0
  5 23  1  0     0  0
  6 11  2  0     0  0
  6 12  1  0     0  0
  7 10  1  0     0  0
  7 13  1  0     0  0
  8  9  2  0     0  0
  8 14  1  0     0  0
  9 11  1  0     0  0
 10 15  1  0     0  0
 10 18  2  0     0  0
 12 14  2  0     0  0
 13 16  2  0     0  0
 15 17  2  0     0  0
 16 17  1  0     0  0
 19 21  1  0     0  0
 20 22  1  0     0  0
M  END
> <standard_type>
pIC50

> <# Confs.>
10

> <canonical_smiles>
ClC(C=C1)=CC(N2)=C1N=C3C=CC=CC3=C2N4CCN(C)CC4

> <standard_relation>
=

> <Publication_ID>
nan

> <predicted_activity_value>
nan

> <actual_activity_value>
0.494850021680094

> <Compound>
Clozapine

> <standard_units>
uM

> hash
3492132998814066739

$$$$
10
XXILIB    08252103503D 0   0.00000     0.00000

 23 26  0     1  0            999 V2000
   -2.8680   -2.4968    5.0734 Cl  0  0  0  0  0  1           0  0  0
   -3.1049   -0.2131   -0.3753 N   0  0  0  0  0  3           0  0  0
   -0.5967   -0.0000    1.2556 N   0  0  0  0  0  3           0  0  0
    1.3979    0.0000    0.0000 N   0  0  1  0  0  3           0  0  0
    4.2547    0.0183    0.0569 N   0  0  1  0  0  3           0  0  0
   -2.8956   -1.8544    3.4771 C   0  0  0  0  0  4           0  0  0
   -2.1990    0.1272   -1.2304 C   0  0  0  0  0  4           0  0  0
   -2.9077   -0.7904    0.8754 C   0  0  0  0  0  4           0  0  0
   -1.7801   -0.6213    1.6774 C   0  0  0  0  0  4           0  0  0
   -0.6841    0.0403   -1.1807 C   0  0  0  0  0  4           0  0  0
   -1.7938   -1.1555    2.9868 C   0  0  0  0  0  4           0  0  0
   -4.0109   -2.0354    2.6762 C   0  0  0  0  0  4           0  0  0
   -2.7668    0.6734   -2.5109 C   0  0  0  0  0  4           0  0  0
   -4.0125   -1.4993    1.3902 C   0  0  0  0  0  4           0  0  0
    0.0070    0.1459   -2.4734 C   0  0  0  0  0  4           0  0  0
   -2.0115    0.8363   -3.5999 C   0  0  0  0  0  4           0  0  0
   -0.6173    0.5080   -3.6001 C   0  0  0  0  0  4           0  0  0
   -0.0000    0.0000    0.0000 C   0  0  0  0  0  4           0  0  0
    2.1281    1.2722    0.0000 C   0  0  0  0  0  4           0  0  0
    2.1290   -1.1063    0.6276 C   0  0  0  0  0  4           0  0  0
    3.5089    1.0829   -0.6292 C   0  0  0  0  0  4           0  0  0
    3.5128   -1.2490   -0.0084 C   0  0  0  0  0  4           0  0  0
    5.5858   -0.1350   -0.5295 C   0  0  0  0  0  4           0  0  0
  1  6  1  0     0  0
  2  7  2  0     0  0
  2  8  1  0     0  0
  3  9  1  0     0  0
  3 18  1  0     0  0
  4 18  1  0     0  0
  4 19  1  0     0  0
  4 20  1  0     0  0
  5 21  1  0     0  0
  5 22  1  0     0  0
  5 23  1  0     0  0
  6 11  2  0     0  0
  6 12  1  0     0  0
  7 10  1  0     0  0
  7 13  1  0     0  0
  8  9  2  0     0  0
  8 14  1  0     0  0
  9 11  1  0     0  0
 10 15  1  0     0  0
 10 18  2  0     0  0
 12 14  2  0     0  0
 13 16  2  0     0  0
 15 17  2  0     0  0
 16 17  1  0     0  0
 19 21  1  0     0  0
 20 22  1  0     0  0
M  END
> <standard_type>
pIC50

> <# Confs.>
10

> <canonical_smiles>
ClC(C=C1)=CC(N2)=C1N=C3C=CC=CC3=C2N4CCN(C)CC4

> <standard_relation>
=

> <Publication_ID>
nan

> <predicted_activity_value>
nan

> <actual_activity_value>
0.494850021680094

> <Compound>
Clozapine

> <standard_units>
uM

> hash
3492132998814066739

$$$$
10
XXILIB    08252103503D 0   0.00000     0.00000

 23 26  0     1  0            999 V2000
   -2.9983    2.1893    5.1750 Cl  0  0  0  0  0  1           0  0  0
   -3.1069    0.1861   -0.3860 N   0  0  0  0  0  3           0  0  0
   -0.5903    0.0000    1.2568 N   0  0  0  0  0  3           0  0  0
    1.3960   -0.0000   -0.0000 N   0  0  1  0  0  3           0  0  0
    3.4950   -0.3907    1.8898 N   0  0  1  0  0  3           0  0  0
   -2.9880    1.6295    3.5478 C   0  0  0  0  0  4           0  0  0
   -2.1935   -0.1122   -1.2477 C   0  0  0  0  0  4           0  0  0
   -2.9362    0.6970    0.8957 C   0  0  0  0  0  4           0  0  0
   -1.8046    0.5432    1.6937 C   0  0  0  0  0  4           0  0  0
   -0.6790   -0.0336   -1.1838 C   0  0  0  0  0  4           0  0  0
   -1.8513    1.0112    3.0288 C   0  0  0  0  0  4           0  0  0
   -4.1069    1.7962    2.7502 C   0  0  0  0  0  4           0  0  0
   -2.7576   -0.5934   -2.5560 C   0  0  0  0  0  4           0  0  0
   -4.0762    1.3255    1.4396 C   0  0  0  0  0  4           0  0  0
    0.0241   -0.1289   -2.4722 C   0  0  0  0  0  4           0  0  0
   -1.9953   -0.7350   -3.6425 C   0  0  0  0  0  4           0  0  0
   -0.5937   -0.4450   -3.6159 C   0  0  0  0  0  4           0  0  0
    0.0000    0.0000   -0.0000 C   0  0  0  0  0  4           0  0  0
    2.1543   -1.2529    0.0000 C   0  0  0  0  0  4           0  0  0
    2.1553    1.1498    0.4962 C   0  0  0  0  0  4           0  0  0
    2.6974   -1.5286    1.4048 C   0  0  0  0  0  4           0  0  0
    2.6971    0.8461    1.8957 C   0  0  0  0  0  4           0  0  0
    4.0244   -0.6662    3.2246 C   0  0  0  0  0  4           0  0  0
  1  6  1  0     0  0
  2  7  2  0     0  0
  2  8  1  0     0  0
  3  9  1  0     0  0
  3 18  1  0     0  0
  4 18  1  0     0  0
  4 19  1  0     0  0
  4 20  1  0     0  0
  5 21  1  0     0  0
  5 22  1  0     0  0
  5 23  1  0     0  0
  6 11  2  0     0  0
  6 12  1  0     0  0
  7 10  1  0     0  0
  7 13  1  0     0  0
  8  9  2  0     0  0
  8 14  1  0     0  0
  9 11  1  0     0  0
 10 15  1  0     0  0
 10 18  2  0     0  0
 12 14  2  0     0  0
 13 16  2  0     0  0
 15 17  2  0     0  0
 16 17  1  0     0  0
 19 21  1  0     0  0
 20 22  1  0     0  0
M  END
> <standard_type>
pIC50

> <# Confs.>
10

> <canonical_smiles>
ClC(C=C1)=CC(N2)=C1N=C3C=CC=CC3=C2N4CCN(C)CC4

> <standard_relation>
=

> <Publication_ID>
nan

> <predicted_activity_value>
nan

> <actual_activity_value>
0.494850021680094

> <Compound>
Clozapine

> <standard_units>
uM

> hash
3492132998814066739

$$$$
10
XXILIB    08252103503D 0   0.00000     0.00000

 23 26  0     1  0            999 V2000
   -3.1365   -2.1427    5.1133 Cl  0  0  0  0  0  1           0  0  0
   -3.1226    0.0620   -0.3729 N   0  0  0  0  0  3           0  0  0
   -0.5949    0.0000    1.2559 N   0  0  0  0  0  3           0  0  0
    1.4058   -0.0000   -0.0000 N   0  0  1  0  0  3           0  0  0
    4.1490    0.4268    0.7031 N   0  0  1  0  0  3           0  0  0
   -3.0941   -1.5273    3.5068 C   0  0  0  0  0  4           0  0  0
   -2.1840    0.2771   -1.2313 C   0  0  0  0  0  4           0  0  0
   -2.9874   -0.5129    0.8875 C   0  0  0  0  0  4           0  0  0
   -1.8439   -0.4658    1.6840 C   0  0  0  0  0  4           0  0  0
   -0.6916    0.0253   -1.1755 C   0  0  0  0  0  4           0  0  0
   -1.9174   -0.9763    3.0015 C   0  0  0  0  0  4           0  0  0
   -4.2271   -1.5831    2.7128 C   0  0  0  0  0  4           0  0  0
   -2.6670    0.8716   -2.5259 C   0  0  0  0  0  4           0  0  0
   -4.1683   -1.0733    1.4176 C   0  0  0  0  0  4           0  0  0
   -0.0331   -0.1397   -2.4762 C   0  0  0  0  0  4           0  0  0
   -1.9057    0.8528   -3.6240 C   0  0  0  0  0  4           0  0  0
   -0.6066    0.2441   -3.6225 C   0  0  0  0  0  4           0  0  0
    0.0000    0.0000    0.0000 C   0  0  0  0  0  4           0  0  0
    2.1895   -1.0763    0.6214 C   0  0  0  0  0  4           0  0  0
    2.2260    0.9547   -0.7589 C   0  0  0  0  0  4           0  0  0
    3.3022   -0.4820    1.4874 C   0  0  0  0  0  4           0  0  0
    3.3413    1.5116    0.1297 C   0  0  0  0  0  4           0  0  0
    5.2249    0.9689    1.5323 C   0  0  0  0  0  4           0  0  0
  1  6  1  0     0  0
  2  7  2  0     0  0
  2  8  1  0     0  0
  3  9  1  0     0  0
  3 18  1  0     0  0
  4 18  1  0     0  0
  4 19  1  0     0  0
  4 20  1  0     0  0
  5 21  1  0     0  0
  5 22  1  0     0  0
  5 23  1  0     0  0
  6 11  2  0     0  0
  6 12  1  0     0  0
  7 10  1  0     0  0
  7 13  1  0     0  0
  8  9  2  0     0  0
  8 14  1  0     0  0
  9 11  1  0     0  0
 10 15  1  0     0  0
 10 18  2  0     0  0
 12 14  2  0     0  0
 13 16  2  0     0  0
 15 17  2  0     0  0
 16 17  1  0     0  0
 19 21  1  0     0  0
 20 22  1  0     0  0
M  END
> <standard_type>
pIC50

> <# Confs.>
10

> <canonical_smiles>
ClC(C=C1)=CC(N2)=C1N=C3C=CC=CC3=C2N4CCN(C)CC4

> <standard_relation>
=

> <Publication_ID>
nan

> <predicted_activity_value>
nan

> <actual_activity_value>
0.494850021680094

> <Compound>
Clozapine

> <standard_units>
uM

> hash
3492132998814066739

$$$$
10
XXILIB    08252103503D 0   0.00000     0.00000

 23 26  0     1  0            999 V2000
   -2.8680   -2.4968    5.0734 Cl  0  0  0  0  0  1           0  0  0
   -3.1049   -0.2131   -0.3753 N   0  0  0  0  0  3           0  0  0
   -0.5967   -0.0000    1.2556 N   0  0  0  0  0  3           0  0  0
    1.3960   -0.0000   -0.0000 N   0  0  1  0  0  3           0  0  0
    3.4950   -0.3907    1.8898 N   0  0  1  0  0  3           0  0  0
   -2.8956   -1.8544    3.4771 C   0  0  0  0  0  4           0  0  0
   -2.1990    0.1272   -1.2304 C   0  0  0  0  0  4           0  0  0
   -2.9077   -0.7904    0.8754 C   0  0  0  0  0  4           0  0  0
   -1.7801   -0.6213    1.6774 C   0  0  0  0  0  4           0  0  0
   -0.6841    0.0403   -1.1807 C   0  0  0  0  0  4           0  0  0
   -1.7938   -1.1555    2.9868 C   0  0  0  0  0  4           0  0  0
   -4.0109   -2.0354    2.6762 C   0  0  0  0  0  4           0  0  0
   -2.7668    0.6734   -2.5109 C   0  0  0  0  0  4           0  0  0
   -4.0125   -1.4993    1.3902 C   0  0  0  0  0  4           0  0  0
    0.0070    0.1459   -2.4734 C   0  0  0  0  0  4           0  0  0
   -2.0115    0.8363   -3.5999 C   0  0  0  0  0  4           0  0  0
   -0.6173    0.5080   -3.6001 C   0  0  0  0  0  4           0  0  0
   -0.0000    0.0000    0.0000 C   0  0  0  0  0  4           0  0  0
    2.1543   -1.2529    0.0000 C   0  0  0  0  0  4           0  0  0
    2.1553    1.1498    0.4962 C   0  0  0  0  0  4           0  0  0
    2.6974   -1.5286    1.4048 C   0  0  0  0  0  4           0  0  0
    2.6971    0.8461    1.8957 C   0  0  0  0  0  4           0  0  0
    4.0244   -0.6662    3.2246 C   0  0  0  0  0  4           0  0  0
  1  6  1  0     0  0
  2  7  2  0     0  0
  2  8  1  0     0  0
  3  9  1  0     0  0
  3 18  1  0     0  0
  4 18  1  0     0  0
  4 19  1  0     0  0
  4 20  1  0     0  0
  5 21  1  0     0  0
  5 22  1  0     0  0
  5 23  1  0     0  0
  6 11  2  0     0  0
  6 12  1  0     0  0
  7 10  1  0     0  0
  7 13  1  0     0  0
  8  9  2  0     0  0
  8 14  1  0     0  0
  9 11  1  0     0  0
 10 15  1  0     0  0
 10 18  2  0     0  0
 12 14  2  0     0  0
 13 16  2  0     0  0
 15 17  2  0     0  0
 16 17  1  0     0  0
 19 21  1  0     0  0
 20 22  1  0     0  0
M  END
> <standard_type>
pIC50

> <# Confs.>
10

> <canonical_smiles>
ClC(C=C1)=CC(N2)=C1N=C3C=CC=CC3=C2N4CCN(C)CC4

> <standard_relation>
=

> <Publication_ID>
nan

> <predicted_activity_value>
nan

> <actual_activity_value>
0.494850021680094

> <Compound>
Clozapine

> <standard_units>
uM

> hash
3492132998814066739

$$$$
10
XXILIB    08252103503D 0   0.00000     0.00000

 23 26  0     1  0            999 V2000
   -3.1365   -2.1427    5.1133 Cl  0  0  0  0  0  1           0  0  0
   -3.1226    0.0620   -0.3729 N   0  0  0  0  0  3           0  0  0
   -0.5949    0.0000    1.2559 N   0  0  0  0  0  3           0  0  0
    1.4058    0.0000    0.0000 N   0  0  1  0  0  3           0  0  0
    4.1490    0.3955   -0.7212 N   0  0  1  0  0  3           0  0  0
   -3.0941   -1.5273    3.5068 C   0  0  0  0  0  4           0  0  0
   -2.1840    0.2771   -1.2313 C   0  0  0  0  0  4           0  0  0
   -2.9874   -0.5129    0.8875 C   0  0  0  0  0  4           0  0  0
   -1.8439   -0.4658    1.6840 C   0  0  0  0  0  4           0  0  0
   -0.6916    0.0253   -1.1755 C   0  0  0  0  0  4           0  0  0
   -1.9174   -0.9763    3.0015 C   0  0  0  0  0  4           0  0  0
   -4.2271   -1.5831    2.7128 C   0  0  0  0  0  4           0  0  0
   -2.6670    0.8716   -2.5259 C   0  0  0  0  0  4           0  0  0
   -4.1683   -1.0733    1.4176 C   0  0  0  0  0  4           0  0  0
   -0.0331   -0.1397   -2.4762 C   0  0  0  0  0  4           0  0  0
   -1.9057    0.8528   -3.6240 C   0  0  0  0  0  4           0  0  0
   -0.6066    0.2441   -3.6225 C   0  0  0  0  0  4           0  0  0
    0.0000    0.0000    0.0000 C   0  0  0  0  0  4           0  0  0
    2.1895    1.0763    0.6214 C   0  0  0  0  0  4           0  0  0
    2.2260   -1.1346   -0.4474 C   0  0  0  0  0  4           0  0  0
    3.3022    1.5291   -0.3263 C   0  0  0  0  0  4           0  0  0
    3.3413   -0.6435   -1.3739 C   0  0  0  0  0  4           0  0  0
    5.2249    0.8426   -1.6052 C   0  0  0  0  0  4           0  0  0
  1  6  1  0     0  0
  2  7  2  0     0  0
  2  8  1  0     0  0
  3  9  1  0     0  0
  3 18  1  0     0  0
  4 18  1  0     0  0
  4 19  1  0     0  0
  4 20  1  0     0  0
  5 21  1  0     0  0
  5 22  1  0     0  0
  5 23  1  0     0  0
  6 11  2  0     0  0
  6 12  1  0     0  0
  7 10  1  0     0  0
  7 13  1  0     0  0
  8  9  2  0     0  0
  8 14  1  0     0  0
  9 11  1  0     0  0
 10 15  1  0     0  0
 10 18  2  0     0  0
 12 14  2  0     0  0
 13 16  2  0     0  0
 15 17  2  0     0  0
 16 17  1  0     0  0
 19 21  1  0     0  0
 20 22  1  0     0  0
M  END
> <standard_type>
pIC50

> <# Confs.>
10

> <canonical_smiles>
ClC(C=C1)=CC(N2)=C1N=C3C=CC=CC3=C2N4CCN(C)CC4

> <standard_relation>
=

> <Publication_ID>
nan

> <predicted_activity_value>
nan

> <actual_activity_value>
0.494850021680094

> <Compound>
Clozapine

> <standard_units>
uM

> hash
3492132998814066739

$$$$
10
XXILIB    08252103503D 0   0.00000     0.00000

 23 26  0     1  0            999 V2000
   -2.9983    2.1893    5.1750 Cl  0  0  0  0  0  1           0  0  0
   -3.1069    0.1861   -0.3860 N   0  0  0  0  0  3           0  0  0
   -0.5903    0.0000    1.2568 N   0  0  0  0  0  3           0  0  0
    1.4058   -0.0000   -0.0000 N   0  0  1  0  0  3           0  0  0
    4.1490    0.4268    0.7031 N   0  0  1  0  0  3           0  0  0
   -2.9880    1.6295    3.5478 C   0  0  0  0  0  4           0  0  0
   -2.1935   -0.1122   -1.2477 C   0  0  0  0  0  4           0  0  0
   -2.9362    0.6970    0.8957 C   0  0  0  0  0  4           0  0  0
   -1.8046    0.5432    1.6937 C   0  0  0  0  0  4           0  0  0
   -0.6790   -0.0336   -1.1838 C   0  0  0  0  0  4           0  0  0
   -1.8513    1.0112    3.0288 C   0  0  0  0  0  4           0  0  0
   -4.1069    1.7962    2.7502 C   0  0  0  0  0  4           0  0  0
   -2.7576   -0.5934   -2.5560 C   0  0  0  0  0  4           0  0  0
   -4.0762    1.3255    1.4396 C   0  0  0  0  0  4           0  0  0
    0.0241   -0.1289   -2.4722 C   0  0  0  0  0  4           0  0  0
   -1.9953   -0.7350   -3.6425 C   0  0  0  0  0  4           0  0  0
   -0.5937   -0.4450   -3.6159 C   0  0  0  0  0  4           0  0  0
    0.0000    0.0000   -0.0000 C   0  0  0  0  0  4           0  0  0
    2.1895   -1.0763    0.6214 C   0  0  0  0  0  4           0  0  0
    2.2260    0.9547   -0.7589 C   0  0  0  0  0  4           0  0  0
    3.3022   -0.4820    1.4874 C   0  0  0  0  0  4           0  0  0
    3.3413    1.5116    0.1297 C   0  0  0  0  0  4           0  0  0
    5.2249    0.9689    1.5323 C   0  0  0  0  0  4           0  0  0
  1  6  1  0     0  0
  2  7  2  0     0  0
  2  8  1  0     0  0
  3  9  1  0     0  0
  3 18  1  0     0  0
  4 18  1  0     0  0
  4 19  1  0     0  0
  4 20  1  0     0  0
  5 21  1  0     0  0
  5 22  1  0     0  0
  5 23  1  0     0  0
  6 11  2  0     0  0
  6 12  1  0     0  0
  7 10  1  0     0  0
  7 13  1  0     0  0
  8  9  2  0     0  0
  8 14  1  0     0  0
  9 11  1  0     0  0
 10 15  1  0     0  0
 10 18  2  0     0  0
 12 14  2  0     0  0
 13 16  2  0     0  0
 15 17  2  0     0  0
 16 17  1  0     0  0
 19 21  1  0     0  0
 20 22  1  0     0  0
M  END
> <standard_type>
pIC50

> <# Confs.>
10

> <canonical_smiles>
ClC(C=C1)=CC(N2)=C1N=C3C=CC=CC3=C2N4CCN(C)CC4

> <standard_relation>
=

> <Publication_ID>
nan

> <predicted_activity_value>
nan

> <actual_activity_value>
0.494850021680094

> <Compound>
Clozapine

> <standard_units>
uM

> hash
3492132998814066739

$$$$
10
XXILIB    08252103503D 0   0.00000     0.00000

 23 26  0     1  0            999 V2000
   -2.9981    2.5063    4.9882 Cl  0  0  0  0  0  1           0  0  0
   -3.1240   -0.0273   -0.3547 N   0  0  0  0  0  3           0  0  0
   -0.5998    0.0000    1.2558 N   0  0  0  0  0  3           0  0  0
    1.4058    0.0000   -0.0000 N   0  0  1  0  0  3           0  0  0
    4.1490   -0.7031    0.4268 N   0  0  1  0  0  3           0  0  0
   -2.9983    1.7899    3.4233 C   0  0  0  0  0  4           0  0  0
   -2.1918   -0.2815   -1.2106 C   0  0  0  0  0  4           0  0  0
   -2.9628    0.6142    0.8713 C   0  0  0  0  0  4           0  0  0
   -1.8188    0.5542    1.6678 C   0  0  0  0  0  4           0  0  0
   -0.6984   -0.0268   -1.1718 C   0  0  0  0  0  4           0  0  0
   -1.8547    1.1477    2.9505 C   0  0  0  0  0  4           0  0  0
   -4.1327    1.8549    2.6310 C   0  0  0  0  0  4           0  0  0
   -2.6774   -0.9235   -2.4805 C   0  0  0  0  0  4           0  0  0
   -4.1103    1.2641    1.3695 C   0  0  0  0  0  4           0  0  0
   -0.0559    0.1286   -2.4802 C   0  0  0  0  0  4           0  0  0
   -1.9260   -0.9177   -3.5862 C   0  0  0  0  0  4           0  0  0
   -0.6372   -0.2859   -3.6120 C   0  0  0  0  0  4           0  0  0
    0.0000    0.0000    0.0000 C   0  0  0  0  0  4           0  0  0
    2.1895   -0.6214   -1.0763 C   0  0  0  0  0  4           0  0  0
    2.2260    0.7589    0.9547 C   0  0  0  0  0  4           0  0  0
    3.3022   -1.4874   -0.4820 C   0  0  0  0  0  4           0  0  0
    3.3413   -0.1297    1.5116 C   0  0  0  0  0  4           0  0  0
    5.2249   -1.5323    0.9689 C   0  0  0  0  0  4           0  0  0
  1  6  1  0     0  0
  2  7  2  0     0  0
  2  8  1  0     0  0
  3  9  1  0     0  0
  3 18  1  0     0  0
  4 18  1  0     0  0
  4 19  1  0     0  0
  4 20  1  0     0  0
  5 21  1  0     0  0
  5 22  1  0     0  0
  5 23  1  0     0  0
  6 11  2  0     0  0
  6 12  1  0     0  0
  7 10  1  0     0  0
  7 13  1  0     0  0
  8  9  2  0     0  0
  8 14  1  0     0  0
  9 11  1  0     0  0
 10 15  1  0     0  0
 10 18  2  0     0  0
 12 14  2  0     0  0
 13 16  2  0     0  0
 15 17  2  0     0  0
 16 17  1  0     0  0
 19 21  1  0     0  0
 20 22  1  0     0  0
M  END
> <standard_type>
pIC50

> <# Confs.>
10

> <canonical_smiles>
ClC(C=C1)=CC(N2)=C1N=C3C=CC=CC3=C2N4CCN(C)CC4

> <standard_relation>
=

> <Publication_ID>
nan

> <predicted_activity_value>
nan

> <actual_activity_value>
0.494850021680094

> <Compound>
Clozapine

> <standard_units>
uM

> hash
3492132998814066739

$$$$
10
XXILIB    08252103503D 0   0.00000     0.00000

 23 26  0     1  0            999 V2000
   -2.8680   -2.4968    5.0734 Cl  0  0  0  0  0  1           0  0  0
   -3.1049   -0.2131   -0.3753 N   0  0  0  0  0  3           0  0  0
   -0.5967   -0.0000    1.2556 N   0  0  0  0  0  3           0  0  0
    1.4064    0.0000   -0.0000 N   0  0  1  0  0  3           0  0  0
    4.3543    0.0872   -0.0068 N   0  0  1  0  0  3           0  0  0
   -2.8956   -1.8544    3.4771 C   0  0  0  0  0  4           0  0  0
   -2.1990    0.1272   -1.2304 C   0  0  0  0  0  4           0  0  0
   -2.9077   -0.7904    0.8754 C   0  0  0  0  0  4           0  0  0
   -1.7801   -0.6213    1.6774 C   0  0  0  0  0  4           0  0  0
   -0.6841    0.0403   -1.1807 C   0  0  0  0  0  4           0  0  0
   -1.7938   -1.1555    2.9868 C   0  0  0  0  0  4           0  0  0
   -4.0109   -2.0354    2.6762 C   0  0  0  0  0  4           0  0  0
   -2.7668    0.6734   -2.5109 C   0  0  0  0  0  4           0  0  0
   -4.0125   -1.4993    1.3902 C   0  0  0  0  0  4           0  0  0
    0.0070    0.1459   -2.4734 C   0  0  0  0  0  4           0  0  0
   -2.0115    0.8363   -3.5999 C   0  0  0  0  0  4           0  0  0
   -0.6173    0.5080   -3.6001 C   0  0  0  0  0  4           0  0  0
   -0.0000    0.0000    0.0000 C   0  0  0  0  0  4           0  0  0
    2.1723    1.0878    0.6280 C   0  0  0  0  0  4           0  0  0
    2.2085   -1.0748   -0.6075 C   0  0  0  0  0  4           0  0  0
    3.5302    0.5718    1.1067 C   0  0  0  0  0  4           0  0  0
    3.5643   -0.5384   -1.0735 C   0  0  0  0  0  4           0  0  0
    5.4172   -0.7893    0.4770 C   0  0  0  0  0  4           0  0  0
  1  6  1  0     0  0
  2  7  2  0     0  0
  2  8  1  0     0  0
  3  9  1  0     0  0
  3 18  1  0     0  0
  4 18  1  0     0  0
  4 19  1  0     0  0
  4 20  1  0     0  0
  5 21  1  0     0  0
  5 22  1  0     0  0
  5 23  1  0     0  0
  6 11  2  0     0  0
  6 12  1  0     0  0
  7 10  1  0     0  0
  7 13  1  0     0  0
  8  9  2  0     0  0
  8 14  1  0     0  0
  9 11  1  0     0  0
 10 15  1  0     0  0
 10 18  2  0     0  0
 12 14  2  0     0  0
 13 16  2  0     0  0
 15 17  2  0     0  0
 16 17  1  0     0  0
 19 21  1  0     0  0
 20 22  1  0     0  0
M  END
> <standard_type>
pIC50

> <# Confs.>
10

> <canonical_smiles>
ClC(C=C1)=CC(N2)=C1N=C3C=CC=CC3=C2N4CCN(C)CC4

> <standard_relation>
=

> <Publication_ID>
nan

> <predicted_activity_value>
nan

> <actual_activity_value>
0.494850021680094

> <Compound>
Clozapine

> <standard_units>
uM

> hash
3492132998814066739

$$$$
10
XXILIB    08252103503D 0   0.00000     0.00000

 23 26  0     1  0            999 V2000
   -2.9983    2.1893    5.1750 Cl  0  0  0  0  0  1           0  0  0
   -3.1069    0.1861   -0.3860 N   0  0  0  0  0  3           0  0  0
   -0.5903    0.0000    1.2568 N   0  0  0  0  0  3           0  0  0
    1.4071   -0.0000   -0.0000 N   0  0  1  0  0  3           0  0  0
    4.0939   -0.5807   -0.7664 N   0  0  1  0  0  3           0  0  0
   -2.9880    1.6295    3.5478 C   0  0  0  0  0  4           0  0  0
   -2.1935   -0.1122   -1.2477 C   0  0  0  0  0  4           0  0  0
   -2.9362    0.6970    0.8957 C   0  0  0  0  0  4           0  0  0
   -1.8046    0.5432    1.6937 C   0  0  0  0  0  4           0  0  0
   -0.6790   -0.0336   -1.1838 C   0  0  0  0  0  4           0  0  0
   -1.8513    1.0112    3.0288 C   0  0  0  0  0  4           0  0  0
   -4.1069    1.7962    2.7502 C   0  0  0  0  0  4           0  0  0
   -2.7576   -0.5934   -2.5560 C   0  0  0  0  0  4           0  0  0
   -4.0762    1.3255    1.4396 C   0  0  0  0  0  4           0  0  0
    0.0241   -0.1289   -2.4722 C   0  0  0  0  0  4           0  0  0
   -1.9953   -0.7350   -3.6425 C   0  0  0  0  0  4           0  0  0
   -0.5937   -0.4450   -3.6159 C   0  0  0  0  0  4           0  0  0
    0.0000    0.0000   -0.0000 C   0  0  0  0  0  4           0  0  0
    2.1552   -1.0977    0.6337 C   0  0  0  0  0  4           0  0  0
    2.2203    1.1007   -0.5265 C   0  0  0  0  0  4           0  0  0
    3.6664   -0.8621    0.6017 C   0  0  0  0  0  4           0  0  0
    3.3931    0.5656   -1.3577 C   0  0  0  0  0  4           0  0  0
    5.5425   -0.4422   -0.8629 C   0  0  0  0  0  4           0  0  0
  1  6  1  0     0  0
  2  7  2  0     0  0
  2  8  1  0     0  0
  3  9  1  0     0  0
  3 18  1  0     0  0
  4 18  1  0     0  0
  4 19  1  0     0  0
  4 20  1  0     0  0
  5 21  1  0     0  0
  5 22  1  0     0  0
  5 23  1  0     0  0
  6 11  2  0     0  0
  6 12  1  0     0  0
  7 10  1  0     0  0
  7 13  1  0     0  0
  8  9  2  0     0  0
  8 14  1  0     0  0
  9 11  1  0     0  0
 10 15  1  0     0  0
 10 18  2  0     0  0
 12 14  2  0     0  0
 13 16  2  0     0  0
 15 17  2  0     0  0
 16 17  1  0     0  0
 19 21  1  0     0  0
 20 22  1  0     0  0
M  END
> <standard_type>
pIC50

> <# Confs.>
10

> <canonical_smiles>
ClC(C=C1)=CC(N2)=C1N=C3C=CC=CC3=C2N4CCN(C)CC4

> <standard_relation>
=

> <Publication_ID>
nan

> <predicted_activity_value>
nan

> <actual_activity_value>
0.494850021680094

> <Compound>
Clozapine

> <standard_units>
uM

> hash
3492132998814066739

$$$$
1
XXILIB    08252103503D 0   0.00000     0.00000

 21 23  0     1  0            999 V2000
    2.1132    0.0000   -1.3469 N   0  0  2  0  0  3           0  0  0
   -1.7619   -0.7483    3.3815 C   0  0  0  0  0  4           0  0  0
   -1.8186   -2.1120    1.1789 C   0  0  0  0  0  4           0  0  0
   -1.6195   -1.7834    4.3324 C   0  0  0  0  0  4           0  0  0
   -1.3253   -3.3719    1.5572 C   0  0  0  0  0  4           0  0  0
   -2.3118    0.4854    3.7920 C   0  0  0  0  0  4           0  0  0
   -2.7162   -2.0060    0.1072 C   0  0  0  0  0  4           0  0  0
   -2.0185   -1.5335    5.6639 C   0  0  0  0  0  4           0  0  0
   -1.7215   -4.5087    0.8403 C   0  0  0  0  0  4           0  0  0
   -2.6922    0.7079    5.1148 C   0  0  0  0  0  4           0  0  0
   -3.1019   -3.1449   -0.5991 C   0  0  0  0  0  4           0  0  0
   -2.5423   -0.3021    6.0533 C   0  0  0  0  0  4           0  0  0
   -2.6029   -4.3936   -0.2350 C   0  0  0  0  0  4           0  0  0
    1.5340    0.0000    0.0000 C   0  0  0  0  0  4           0  0  0
    1.7025   -1.1784   -2.1141 C   0  0  0  0  0  4           0  0  0
    3.5745    0.0583   -1.2661 C   0  0  0  0  0  4           0  0  0
   -1.4021   -0.9194    1.9462 C   0  0  0  0  0  4           0  0  0
   -1.1085   -3.1884    4.0594 C   0  0  0  0  0  4           0  0  0
   -0.3962   -3.4911    2.7384 C   0  0  0  0  0  4           0  0  0
   -0.5858    0.0000    1.3811 C   0  0  0  0  0  4           0  0  0
    0.0000   -0.0000    0.0000 C   0  0  0  0  0  4           0  0  0
  1 14  1  0     0  0
  1 15  1  0     0  0
  1 16  1  0     0  0
  2  4  2  0     0  0
  2  6  1  0     0  0
  2 17  1  0     0  0
  3  5  2  0     0  0
  3  7  1  0     0  0
  3 17  1  0     0  0
  4  8  1  0     0  0
  4 18  1  0     0  0
  5  9  1  0     0  0
  5 19  1  0     0  0
  6 10  2  0     0  0
  7 11  2  0     0  0
  8 12  2  0     0  0
  9 13  2  0     0  0
 10 12  1  0     0  0
 11 13  1  0     0  0
 14 21  1  0     0  0
 17 20  2  0     0  0
 18 19  1  0     0  0
 20 21  1  0     0  0
M  END
> <standard_type>
pIC50

> <# Confs.>
25

> <canonical_smiles>
c3cc2c(/C(c1c(cccc1)CC2)=C\CCN(C)C)cc3

> <standard_relation>
=

> <Publication_ID>
nan

> <predicted_activity_value>
nan

> <actual_activity_value>
-1.0

> <Compound>
Amitryptiline

> <standard_units>
uM

> hash
13742214864579490031

$$$$
1
XXILIB    08252103503D 0   0.00000     0.00000

 21 23  0     1  0            999 V2000
    2.1132    0.0000   -1.3469 N   0  0  2  0  0  3           0  0  0
   -1.9455   -0.6404    3.3012 C   0  0  0  0  0  4           0  0  0
   -1.8240   -2.1063    1.1690 C   0  0  0  0  0  4           0  0  0
   -3.3234   -0.7223    3.6024 C   0  0  0  0  0  4           0  0  0
   -3.1638   -2.2091    0.7592 C   0  0  0  0  0  4           0  0  0
   -1.0369   -0.3289    4.3354 C   0  0  0  0  0  4           0  0  0
   -0.9186   -3.1325    0.8646 C   0  0  0  0  0  4           0  0  0
   -3.7378   -0.4702    4.9287 C   0  0  0  0  0  4           0  0  0
   -3.5736   -3.3302    0.0255 C   0  0  0  0  0  4           0  0  0
   -1.4737   -0.0774    5.6353 C   0  0  0  0  0  4           0  0  0
   -1.3395   -4.2442    0.1358 C   0  0  0  0  0  4           0  0  0
   -2.8267   -0.1457    5.9320 C   0  0  0  0  0  4           0  0  0
   -2.6637   -4.3408   -0.2864 C   0  0  0  0  0  4           0  0  0
    1.5340    0.0000    0.0000 C   0  0  0  0  0  4           0  0  0
    1.7025   -1.1784   -2.1141 C   0  0  0  0  0  4           0  0  0
    3.5745    0.0583   -1.2661 C   0  0  0  0  0  4           0  0  0
   -1.4017   -0.9207    1.9435 C   0  0  0  0  0  4           0  0  0
   -4.4315   -1.1049    2.6351 C   0  0  0  0  0  4           0  0  0
   -4.1476   -1.1284    1.1303 C   0  0  0  0  0  4           0  0  0
   -0.5858    0.0000    1.3811 C   0  0  0  0  0  4           0  0  0
    0.0000   -0.0000    0.0000 C   0  0  0  0  0  4           0  0  0
  1 14  1  0     0  0
  1 15  1  0     0  0
  1 16  1  0     0  0
  2  4  2  0     0  0
  2  6  1  0     0  0
  2 17  1  0     0  0
  3  5  2  0     0  0
  3  7  1  0     0  0
  3 17  1  0     0  0
  4  8  1  0     0  0
  4 18  1  0     0  0
  5  9  1  0     0  0
  5 19  1  0     0  0
  6 10  2  0     0  0
  7 11  2  0     0  0
  8 12  2  0     0  0
  9 13  2  0     0  0
 10 12  1  0     0  0
 11 13  1  0     0  0
 14 21  1  0     0  0
 17 20  2  0     0  0
 18 19  1  0     0  0
 20 21  1  0     0  0
M  END
> <standard_type>
pIC50

> <# Confs.>
25

> <canonical_smiles>
c3cc2c(/C(c1c(cccc1)CC2)=C\CCN(C)C)cc3

> <standard_relation>
=

> <Publication_ID>
nan

> <predicted_activity_value>
nan

> <actual_activity_value>
-1.0

> <Compound>
Amitryptiline

> <standard_units>
uM

> hash
13742214864579490031

$$$$
1
XXILIB    08252103503D 0   0.00000     0.00000

 21 23  0     1  0            999 V2000
    2.1132    1.1664    0.6734 N   0  0  2  0  0  3           0  0  0
   -1.9455   -0.6404    3.3012 C   0  0  0  0  0  4           0  0  0
   -1.8240   -2.1063    1.1690 C   0  0  0  0  0  4           0  0  0
   -3.3234   -0.7223    3.6024 C   0  0  0  0  0  4           0  0  0
   -3.1638   -2.2091    0.7592 C   0  0  0  0  0  4           0  0  0
   -1.0369   -0.3289    4.3354 C   0  0  0  0  0  4           0  0  0
   -0.9186   -3.1325    0.8646 C   0  0  0  0  0  4           0  0  0
   -3.7378   -0.4702    4.9287 C   0  0  0  0  0  4           0  0  0
   -3.5736   -3.3302    0.0255 C   0  0  0  0  0  4           0  0  0
   -1.4737   -0.0774    5.6353 C   0  0  0  0  0  4           0  0  0
   -1.3395   -4.2442    0.1358 C   0  0  0  0  0  4           0  0  0
   -2.8267   -0.1457    5.9320 C   0  0  0  0  0  4           0  0  0
   -2.6637   -4.3408   -0.2864 C   0  0  0  0  0  4           0  0  0
    1.5340   -0.0000    0.0000 C   0  0  0  0  0  4           0  0  0
    1.7025    2.4201    0.0366 C   0  0  0  0  0  4           0  0  0
    3.5745    1.0673    0.6835 C   0  0  0  0  0  4           0  0  0
   -1.4017   -0.9207    1.9435 C   0  0  0  0  0  4           0  0  0
   -4.4315   -1.1049    2.6351 C   0  0  0  0  0  4           0  0  0
   -4.1476   -1.1284    1.1303 C   0  0  0  0  0  4           0  0  0
   -0.5858    0.0000    1.3811 C   0  0  0  0  0  4           0  0  0
    0.0000   -0.0000    0.0000 C   0  0  0  0  0  4           0  0  0
  1 14  1  0     0  0
  1 15  1  0     0  0
  1 16  1  0     0  0
  2  4  2  0     0  0
  2  6  1  0     0  0
  2 17  1  0     0  0
  3  5  2  0     0  0
  3  7  1  0     0  0
  3 17  1  0     0  0
  4  8  1  0     0  0
  4 18  1  0     0  0
  5  9  1  0     0  0
  5 19  1  0     0  0
  6 10  2  0     0  0
  7 11  2  0     0  0
  8 12  2  0     0  0
  9 13  2  0     0  0
 10 12  1  0     0  0
 11 13  1  0     0  0
 14 21  1  0     0  0
 17 20  2  0     0  0
 18 19  1  0     0  0
 20 21  1  0     0  0
M  END
> <standard_type>
pIC50

> <# Confs.>
25

> <canonical_smiles>
c3cc2c(/C(c1c(cccc1)CC2)=C\CCN(C)C)cc3

> <standard_relation>
=

> <Publication_ID>
nan

> <predicted_activity_value>
nan

> <actual_activity_value>
-1.0

> <Compound>
Amitryptiline

> <standard_units>
uM

> hash
13742214864579490031

$$$$
1
XXILIB    08252103503D 0   0.00000     0.00000

 21 23  0     1  0            999 V2000
    2.1132    0.0000   -1.3469 N   0  0  2  0  0  3           0  0  0
   -1.9419    0.6354    3.3051 C   0  0  0  0  0  4           0  0  0
   -1.8261    2.1073    1.1758 C   0  0  0  0  0  4           0  0  0
   -3.3186    0.7179    3.6118 C   0  0  0  0  0  4           0  0  0
   -3.1685    2.2160    0.7754 C   0  0  0  0  0  4           0  0  0
   -1.0305    0.3181    4.3354 C   0  0  0  0  0  4           0  0  0
   -0.9203    3.1324    0.8690 C   0  0  0  0  0  4           0  0  0
   -3.7290    0.4607    4.9384 C   0  0  0  0  0  4           0  0  0
   -3.5808    3.3427    0.0517 C   0  0  0  0  0  4           0  0  0
   -1.4632    0.0628    5.6361 C   0  0  0  0  0  4           0  0  0
   -1.3428    4.2481    0.1470 C   0  0  0  0  0  4           0  0  0
   -2.8151    0.1309    5.9376 C   0  0  0  0  0  4           0  0  0
   -2.6701    4.3515   -0.2635 C   0  0  0  0  0  4           0  0  0
    1.5340    0.0000    0.0000 C   0  0  0  0  0  4           0  0  0
    1.7025   -1.1784   -2.1141 C   0  0  0  0  0  4           0  0  0
    3.5745    0.0583   -1.2661 C   0  0  0  0  0  4           0  0  0
   -1.4021    0.9194    1.9462 C   0  0  0  0  0  4           0  0  0
   -4.4302    1.1052    2.6505 C   0  0  0  0  0  4           0  0  0
   -4.1525    1.1354    1.1452 C   0  0  0  0  0  4           0  0  0
   -0.5858   -0.0000    1.3811 C   0  0  0  0  0  4           0  0  0
    0.0000    0.0000   -0.0000 C   0  0  0  0  0  4           0  0  0
  1 14  1  0     0  0
  1 15  1  0     0  0
  1 16  1  0     0  0
  2  4  2  0     0  0
  2  6  1  0     0  0
  2 17  1  0     0  0
  3  5  2  0     0  0
  3  7  1  0     0  0
  3 17  1  0     0  0
  4  8  1  0     0  0
  4 18  1  0     0  0
  5  9  1  0     0  0
  5 19  1  0     0  0
  6 10  2  0     0  0
  7 11  2  0     0  0
  8 12  2  0     0  0
  9 13  2  0     0  0
 10 12  1  0     0  0
 11 13  1  0     0  0
 14 21  1  0     0  0
 17 20  2  0     0  0
 18 19  1  0     0  0
 20 21  1  0     0  0
M  END
> <standard_type>
pIC50

> <# Confs.>
25

> <canonical_smiles>
c3cc2c(/C(c1c(cccc1)CC2)=C\CCN(C)C)cc3

> <standard_relation>
=

> <Publication_ID>
nan

> <predicted_activity_value>
nan

> <actual_activity_value>
-1.0

> <Compound>
Amitryptiline

> <standard_units>
uM

> hash
13742214864579490031

$$$$
1
XXILIB    08252103503D 0   0.00000     0.00000

 21 23  0     1  0            999 V2000
    2.1132    0.0000   -1.3469 N   0  0  2  0  0  3           0  0  0
   -1.7628    0.7550    3.3787 C   0  0  0  0  0  4           0  0  0
   -1.8148    2.1121    1.1729 C   0  0  0  0  0  4           0  0  0
   -1.6167    1.7926    4.3262 C   0  0  0  0  0  4           0  0  0
   -1.3123    3.3703    1.5445 C   0  0  0  0  0  4           0  0  0
   -2.3186   -0.4749    3.7918 C   0  0  0  0  0  4           0  0  0
   -2.7145    2.0063    0.1029 C   0  0  0  0  0  4           0  0  0
   -2.0184    1.5485    5.6579 C   0  0  0  0  0  4           0  0  0
   -1.6993    4.5056    0.8204 C   0  0  0  0  0  4           0  0  0
   -2.7005   -0.6920    5.1149 C   0  0  0  0  0  4           0  0  0
   -3.0936    3.1441   -0.6082 C   0  0  0  0  0  4           0  0  0
   -2.5479    0.3205    6.0502 C   0  0  0  0  0  4           0  0  0
   -2.5837    4.3909   -0.2525 C   0  0  0  0  0  4           0  0  0
    1.5340    0.0000    0.0000 C   0  0  0  0  0  4           0  0  0
    1.7025   -1.1784   -2.1141 C   0  0  0  0  0  4           0  0  0
    3.5745    0.0583   -1.2661 C   0  0  0  0  0  4           0  0  0
   -1.4017    0.9207    1.9435 C   0  0  0  0  0  4           0  0  0
   -1.0995    3.1945    4.0483 C   0  0  0  0  0  4           0  0  0
   -0.3839    3.4888    2.7266 C   0  0  0  0  0  4           0  0  0
   -0.5858   -0.0000    1.3811 C   0  0  0  0  0  4           0  0  0
    0.0000    0.0000   -0.0000 C   0  0  0  0  0  4           0  0  0
  1 14  1  0     0  0
  1 15  1  0     0  0
  1 16  1  0     0  0
  2  4  2  0     0  0
  2  6  1  0     0  0
  2 17  1  0     0  0
  3  5  2  0     0  0
  3  7  1  0     0  0
  3 17  1  0     0  0
  4  8  1  0     0  0
  4 18  1  0     0  0
  5  9  1  0     0  0
  5 19  1  0     0  0
  6 10  2  0     0  0
  7 11  2  0     0  0
  8 12  2  0     0  0
  9 13  2  0     0  0
 10 12  1  0     0  0
 11 13  1  0     0  0
 14 21  1  0     0  0
 17 20  2  0     0  0
 18 19  1  0     0  0
 20 21  1  0     0  0
M  END
> <standard_type>
pIC50

> <# Confs.>
25

> <canonical_smiles>
c3cc2c(/C(c1c(cccc1)CC2)=C\CCN(C)C)cc3

> <standard_relation>
=

> <Publication_ID>
nan

> <predicted_activity_value>
nan

> <actual_activity_value>
-1.0

> <Compound>
Amitryptiline

> <standard_units>
uM

> hash
13742214864579490031

$$$$
1
XXILIB    08252103503D 0   0.00000     0.00000

 21 23  0     1  0            999 V2000
    2.1132    1.1664    0.6734 N   0  0  2  0  0  3           0  0  0
   -1.7619   -0.7483    3.3815 C   0  0  0  0  0  4           0  0  0
   -1.8186   -2.1120    1.1789 C   0  0  0  0  0  4           0  0  0
   -1.6195   -1.7834    4.3324 C   0  0  0  0  0  4           0  0  0
   -1.3253   -3.3719    1.5572 C   0  0  0  0  0  4           0  0  0
   -2.3118    0.4854    3.7920 C   0  0  0  0  0  4           0  0  0
   -2.7162   -2.0060    0.1072 C   0  0  0  0  0  4           0  0  0
   -2.0185   -1.5335    5.6639 C   0  0  0  0  0  4           0  0  0
   -1.7215   -4.5087    0.8403 C   0  0  0  0  0  4           0  0  0
   -2.6922    0.7079    5.1148 C   0  0  0  0  0  4           0  0  0
   -3.1019   -3.1449   -0.5991 C   0  0  0  0  0  4           0  0  0
   -2.5423   -0.3021    6.0533 C   0  0  0  0  0  4           0  0  0
   -2.6029   -4.3936   -0.2350 C   0  0  0  0  0  4           0  0  0
    1.5340   -0.0000    0.0000 C   0  0  0  0  0  4           0  0  0
    1.7025    2.4201    0.0366 C   0  0  0  0  0  4           0  0  0
    3.5745    1.0673    0.6835 C   0  0  0  0  0  4           0  0  0
   -1.4021   -0.9194    1.9462 C   0  0  0  0  0  4           0  0  0
   -1.1085   -3.1884    4.0594 C   0  0  0  0  0  4           0  0  0
   -0.3962   -3.4911    2.7384 C   0  0  0  0  0  4           0  0  0
   -0.5858    0.0000    1.3811 C   0  0  0  0  0  4           0  0  0
    0.0000   -0.0000    0.0000 C   0  0  0  0  0  4           0  0  0
  1 14  1  0     0  0
  1 15  1  0     0  0
  1 16  1  0     0  0
  2  4  2  0     0  0
  2  6  1  0     0  0
  2 17  1  0     0  0
  3  5  2  0     0  0
  3  7  1  0     0  0
  3 17  1  0     0  0
  4  8  1  0     0  0
  4 18  1  0     0  0
  5  9  1  0     0  0
  5 19  1  0     0  0
  6 10  2  0     0  0
  7 11  2  0     0  0
  8 12  2  0     0  0
  9 13  2  0     0  0
 10 12  1  0     0  0
 11 13  1  0     0  0
 14 21  1  0     0  0
 17 20  2  0     0  0
 18 19  1  0     0  0
 20 21  1  0     0  0
M  END
> <standard_type>
pIC50

> <# Confs.>
25

> <canonical_smiles>
c3cc2c(/C(c1c(cccc1)CC2)=C\CCN(C)C)cc3

> <standard_relation>
=

> <Publication_ID>
nan

> <predicted_activity_value>
nan

> <actual_activity_value>
-1.0

> <Compound>
Amitryptiline

> <standard_units>
uM

> hash
13742214864579490031

$$$$
1
XXILIB    08252103503D 0   0.00000     0.00000

 21 23  0     1  0            999 V2000
    2.1132    0.0000   -1.3469 N   0  0  2  0  0  3           0  0  0
   -1.3778    0.8057    3.5420 C   0  0  0  0  0  4           0  0  0
   -0.6931    2.4355    1.6487 C   0  0  0  0  0  4           0  0  0
   -0.8163    1.4520    4.6657 C   0  0  0  0  0  4           0  0  0
    0.3137    3.2213    2.2342 C   0  0  0  0  0  4           0  0  0
   -2.4566   -0.0843    3.7333 C   0  0  0  0  0  4           0  0  0
   -1.4877    2.9669    0.6233 C   0  0  0  0  0  4           0  0  0
   -1.3489    1.1655    5.9419 C   0  0  0  0  0  4           0  0  0
    0.5281    4.5240    1.7652 C   0  0  0  0  0  4           0  0  0
   -2.9587   -0.3549    5.0054 C   0  0  0  0  0  4           0  0  0
   -1.2658    4.2657    0.1670 C   0  0  0  0  0  4           0  0  0
   -2.4024    0.2692    6.1119 C   0  0  0  0  0  4           0  0  0
   -0.2570    5.0413    0.7343 C   0  0  0  0  0  4           0  0  0
    1.5340   -0.0000   -0.0000 C   0  0  0  0  0  4           0  0  0
    3.5775    0.0000   -1.3079 C   0  0  0  0  0  4           0  0  0
    1.6342    1.1611   -2.1004 C   0  0  0  0  0  4           0  0  0
   -0.9124    1.0631    2.1511 C   0  0  0  0  0  4           0  0  0
    0.3008    2.4823    4.6423 C   0  0  0  0  0  4           0  0  0
    1.1343    2.6658    3.3705 C   0  0  0  0  0  4           0  0  0
   -0.5858    0.0000    1.3811 C   0  0  0  0  0  4           0  0  0
    0.0000    0.0000    0.0000 C   0  0  0  0  0  4           0  0  0
  1 14  1  0     0  0
  1 15  1  0     0  0
  1 16  1  0     0  0
  2  4  2  0     0  0
  2  6  1  0     0  0
  2 17  1  0     0  0
  3  5  2  0     0  0
  3  7  1  0     0  0
  3 17  1  0     0  0
  4  8  1  0     0  0
  4 18  1  0     0  0
  5  9  1  0     0  0
  5 19  1  0     0  0
  6 10  2  0     0  0
  7 11  2  0     0  0
  8 12  2  0     0  0
  9 13  2  0     0  0
 10 12  1  0     0  0
 11 13  1  0     0  0
 14 21  1  0     0  0
 17 20  2  0     0  0
 18 19  1  0     0  0
 20 21  1  0     0  0
M  END
> <standard_type>
pIC50

> <# Confs.>
25

> <canonical_smiles>
c3cc2c(/C(c1c(cccc1)CC2)=C\CCN(C)C)cc3

> <standard_relation>
=

> <Publication_ID>
nan

> <predicted_activity_value>
nan

> <actual_activity_value>
-1.0

> <Compound>
Amitryptiline

> <standard_units>
uM

> hash
13742214864579490031

$$$$
1
XXILIB    08252103503D 0   0.00000     0.00000

 21 23  0     1  0            999 V2000
    2.1132    1.1664    0.6734 N   0  0  2  0  0  3           0  0  0
   -2.0729    0.5021    3.2472 C   0  0  0  0  0  4           0  0  0
   -2.6375    1.2227    0.8240 C   0  0  0  0  0  4           0  0  0
   -2.4666    1.6529    3.9658 C   0  0  0  0  0  4           0  0  0
   -2.7890    2.6162    0.9182 C   0  0  0  0  0  4           0  0  0
   -2.0193   -0.7383    3.9187 C   0  0  0  0  0  4           0  0  0
   -3.3347    0.5081   -0.1601 C   0  0  0  0  0  4           0  0  0
   -2.7745    1.5166    5.3372 C   0  0  0  0  0  4           0  0  0
   -3.6198    3.2799    0.0059 C   0  0  0  0  0  4           0  0  0
   -2.3217   -0.8437    5.2756 C   0  0  0  0  0  4           0  0  0
   -4.1603    1.1801   -1.0607 C   0  0  0  0  0  4           0  0  0
   -2.6975    0.2860    5.9867 C   0  0  0  0  0  4           0  0  0
   -4.2994    2.5641   -0.9802 C   0  0  0  0  0  4           0  0  0
    1.5340   -0.0000    0.0000 C   0  0  0  0  0  4           0  0  0
    1.7025    2.4201    0.0366 C   0  0  0  0  0  4           0  0  0
    3.5745    1.0673    0.6835 C   0  0  0  0  0  4           0  0  0
   -1.7600    0.5316    1.7916 C   0  0  0  0  0  4           0  0  0
   -2.6401    3.0508    3.3949 C   0  0  0  0  0  4           0  0  0
   -2.0775    3.3770    2.0083 C   0  0  0  0  0  4           0  0  0
   -0.5858    0.0000    1.3811 C   0  0  0  0  0  4           0  0  0
    0.0000    0.0000   -0.0000 C   0  0  0  0  0  4           0  0  0
  1 14  1  0     0  0
  1 15  1  0     0  0
  1 16  1  0     0  0
  2  4  2  0     0  0
  2  6  1  0     0  0
  2 17  1  0     0  0
  3  5  2  0     0  0
  3  7  1  0     0  0
  3 17  1  0     0  0
  4  8  1  0     0  0
  4 18  1  0     0  0
  5  9  1  0     0  0
  5 19  1  0     0  0
  6 10  2  0     0  0
  7 11  2  0     0  0
  8 12  2  0     0  0
  9 13  2  0     0  0
 10 12  1  0     0  0
 11 13  1  0     0  0
 14 21  1  0     0  0
 17 20  2  0     0  0
 18 19  1  0     0  0
 20 21  1  0     0  0
M  END
> <standard_type>
pIC50

> <# Confs.>
25

> <canonical_smiles>
c3cc2c(/C(c1c(cccc1)CC2)=C\CCN(C)C)cc3

> <standard_relation>
=

> <Publication_ID>
nan

> <predicted_activity_value>
nan

> <actual_activity_value>
-1.0

> <Compound>
Amitryptiline

> <standard_units>
uM

> hash
13742214864579490031

$$$$
1
XXILIB    08252103503D 0   0.00000     0.00000

 21 23  0     1  0            999 V2000
    2.1132    0.0000   -1.3469 N   0  0  2  0  0  3           0  0  0
   -1.8538    2.1432    1.2705 C   0  0  0  0  0  4           0  0  0
   -1.9297    0.5391    3.2954 C   0  0  0  0  0  4           0  0  0
   -3.2175    2.4862    1.1378 C   0  0  0  0  0  4           0  0  0
   -3.2960    0.2315    3.4180 C   0  0  0  0  0  4           0  0  0
   -0.8742    3.0387    0.7941 C   0  0  0  0  0  4           0  0  0
   -1.0997    0.5084    4.4244 C   0  0  0  0  0  4           0  0  0
   -3.5460    3.6971    0.4896 C   0  0  0  0  0  4           0  0  0
   -3.8125   -0.1068    4.6753 C   0  0  0  0  0  4           0  0  0
   -1.2254    4.2265    0.1543 C   0  0  0  0  0  4           0  0  0
   -1.6271    0.1692    5.6699 C   0  0  0  0  0  4           0  0  0
   -2.5638    4.5533   -0.0044 C   0  0  0  0  0  4           0  0  0
   -2.9805   -0.1378    5.7950 C   0  0  0  0  0  4           0  0  0
    1.5340   -0.0000   -0.0000 C   0  0  0  0  0  4           0  0  0
    3.5775    0.0000   -1.3079 C   0  0  0  0  0  4           0  0  0
    1.6342    1.1611   -2.1004 C   0  0  0  0  0  4           0  0  0
   -1.4024    0.9091    1.9623 C   0  0  0  0  0  4           0  0  0
   -4.3974    1.6974    1.6803 C   0  0  0  0  0  4           0  0  0
   -4.1884    0.2735    2.2024 C   0  0  0  0  0  4           0  0  0
   -0.5858   -0.0000    1.3811 C   0  0  0  0  0  4           0  0  0
    0.0000    0.0000   -0.0000 C   0  0  0  0  0  4           0  0  0
  1 14  1  0     0  0
  1 15  1  0     0  0
  1 16  1  0     0  0
  2  4  2  0     0  0
  2  6  1  0     0  0
  2 17  1  0     0  0
  3  5  2  0     0  0
  3  7  1  0     0  0
  3 17  1  0     0  0
  4  8  1  0     0  0
  4 18  1  0     0  0
  5  9  1  0     0  0
  5 19  1  0     0  0
  6 10  2  0     0  0
  7 11  2  0     0  0
  8 12  2  0     0  0
  9 13  2  0     0  0
 10 12  1  0     0  0
 11 13  1  0     0  0
 14 21  1  0     0  0
 17 20  2  0     0  0
 18 19  1  0     0  0
 20 21  1  0     0  0
M  END
> <standard_type>
pIC50

> <# Confs.>
25

> <canonical_smiles>
c3cc2c(/C(c1c(cccc1)CC2)=C\CCN(C)C)cc3

> <standard_relation>
=

> <Publication_ID>
nan

> <predicted_activity_value>
nan

> <actual_activity_value>
-1.0

> <Compound>
Amitryptiline

> <standard_units>
uM

> hash
13742214864579490031

$$$$
1
XXILIB    08252103503D 0   0.00000     0.00000

 21 23  0     1  0            999 V2000
    2.1132    0.0000   -1.3469 N   0  0  2  0  0  3           0  0  0
   -1.8839    2.1238    1.2385 C   0  0  0  0  0  4           0  0  0
   -1.6862    0.7060    3.3913 C   0  0  0  0  0  4           0  0  0
   -1.7201    3.4291    1.7514 C   0  0  0  0  0  4           0  0  0
   -1.1352    1.6019    4.3245 C   0  0  0  0  0  4           0  0  0
   -2.6028    1.9459    0.0377 C   0  0  0  0  0  4           0  0  0
   -2.4935   -0.3533    3.8287 C   0  0  0  0  0  4           0  0  0
   -2.2445    4.5122    1.0123 C   0  0  0  0  0  4           0  0  0
   -1.3975    1.4194    5.6884 C   0  0  0  0  0  4           0  0  0
   -3.1058    3.0330   -0.6755 C   0  0  0  0  0  4           0  0  0
   -2.7470   -0.5228    5.1893 C   0  0  0  0  0  4           0  0  0
   -2.9209    4.3191   -0.1908 C   0  0  0  0  0  4           0  0  0
   -2.1994    0.3609    6.1173 C   0  0  0  0  0  4           0  0  0
    1.5340   -0.0000   -0.0000 C   0  0  0  0  0  4           0  0  0
    3.5775    0.0000   -1.3079 C   0  0  0  0  0  4           0  0  0
    1.6342    1.1611   -2.1004 C   0  0  0  0  0  4           0  0  0
   -1.4020    0.9146    1.9531 C   0  0  0  0  0  4           0  0  0
   -1.0725    3.7969    3.0759 C   0  0  0  0  0  4           0  0  0
   -0.2731    2.7456    3.8506 C   0  0  0  0  0  4           0  0  0
   -0.5858   -0.0000    1.3811 C   0  0  0  0  0  4           0  0  0
    0.0000    0.0000   -0.0000 C   0  0  0  0  0  4           0  0  0
  1 14  1  0     0  0
  1 15  1  0     0  0
  1 16  1  0     0  0
  2  4  2  0     0  0
  2  6  1  0     0  0
  2 17  1  0     0  0
  3  5  2  0     0  0
  3  7  1  0     0  0
  3 17  1  0     0  0
  4  8  1  0     0  0
  4 18  1  0     0  0
  5  9  1  0     0  0
  5 19  1  0     0  0
  6 10  2  0     0  0
  7 11  2  0     0  0
  8 12  2  0     0  0
  9 13  2  0     0  0
 10 12  1  0     0  0
 11 13  1  0     0  0
 14 21  1  0     0  0
 17 20  2  0     0  0
 18 19  1  0     0  0
 20 21  1  0     0  0
M  END
> <standard_type>
pIC50

> <# Confs.>
25

> <canonical_smiles>
c3cc2c(/C(c1c(cccc1)CC2)=C\CCN(C)C)cc3

> <standard_relation>
=

> <Publication_ID>
nan

> <predicted_activity_value>
nan

> <actual_activity_value>
-1.0

> <Compound>
Amitryptiline

> <standard_units>
uM

> hash
13742214864579490031

$$$$
1
XXILIB    08252103503D 0   0.00000     0.00000

 21 23  0     1  0            999 V2000
    2.1132    0.0000   -1.3469 N   0  0  2  0  0  3           0  0  0
   -1.3803   -0.7989    3.5433 C   0  0  0  0  0  4           0  0  0
   -0.6968   -2.4360    1.6548 C   0  0  0  0  0  4           0  0  0
   -0.8234   -1.4441    4.6701 C   0  0  0  0  0  4           0  0  0
    0.3023   -3.2261    2.2476 C   0  0  0  0  0  4           0  0  0
   -2.4553    0.0966    3.7311 C   0  0  0  0  0  4           0  0  0
   -1.4896   -2.9667    0.6275 C   0  0  0  0  0  4           0  0  0
   -1.3562   -1.1514    5.9448 C   0  0  0  0  0  4           0  0  0
    0.5089   -4.5330    1.7863 C   0  0  0  0  0  4           0  0  0
   -2.9587    0.3725    5.0018 C   0  0  0  0  0  4           0  0  0
   -1.2732   -4.2683    0.1765 C   0  0  0  0  0  4           0  0  0
   -2.4061   -0.2500    6.1110 C   0  0  0  0  0  4           0  0  0
   -0.2736   -5.0490    0.7530 C   0  0  0  0  0  4           0  0  0
    1.5340   -0.0000   -0.0000 C   0  0  0  0  0  4           0  0  0
    3.5775    0.0000   -1.3079 C   0  0  0  0  0  4           0  0  0
    1.6342    1.1611   -2.1004 C   0  0  0  0  0  4           0  0  0
   -0.9134   -1.0616    2.1535 C   0  0  0  0  0  4           0  0  0
    0.2895   -2.4789    4.6524 C   0  0  0  0  0  4           0  0  0
    1.1239   -2.6711    3.3831 C   0  0  0  0  0  4           0  0  0
   -0.5858    0.0000    1.3811 C   0  0  0  0  0  4           0  0  0
    0.0000    0.0000    0.0000 C   0  0  0  0  0  4           0  0  0
  1 14  1  0     0  0
  1 15  1  0     0  0
  1 16  1  0     0  0
  2  4  2  0     0  0
  2  6  1  0     0  0
  2 17  1  0     0  0
  3  5  2  0     0  0
  3  7  1  0     0  0
  3 17  1  0     0  0
  4  8  1  0     0  0
  4 18  1  0     0  0
  5  9  1  0     0  0
  5 19  1  0     0  0
  6 10  2  0     0  0
  7 11  2  0     0  0
  8 12  2  0     0  0
  9 13  2  0     0  0
 10 12  1  0     0  0
 11 13  1  0     0  0
 14 21  1  0     0  0
 17 20  2  0     0  0
 18 19  1  0     0  0
 20 21  1  0     0  0
M  END
> <standard_type>
pIC50

> <# Confs.>
25

> <canonical_smiles>
c3cc2c(/C(c1c(cccc1)CC2)=C\CCN(C)C)cc3

> <standard_relation>
=

> <Publication_ID>
nan

> <predicted_activity_value>
nan

> <actual_activity_value>
-1.0

> <Compound>
Amitryptiline

> <standard_units>
uM

> hash
13742214864579490031

$$$$
1
XXILIB    08252103503D 0   0.00000     0.00000

 21 23  0     1  0            999 V2000
    2.1132    1.1664    0.6734 N   0  0  2  0  0  3           0  0  0
   -2.7124   -1.2105    0.9063 C   0  0  0  0  0  4           0  0  0
   -1.9752   -0.4897    3.2762 C   0  0  0  0  0  4           0  0  0
   -3.1884   -2.5178    1.1501 C   0  0  0  0  0  4           0  0  0
   -1.9443   -1.6997    3.9913 C   0  0  0  0  0  4           0  0  0
   -3.2162   -0.4947   -0.1993 C   0  0  0  0  0  4           0  0  0
   -2.2262    0.7152    3.9466 C   0  0  0  0  0  4           0  0  0
   -4.1203   -3.0733    0.2461 C   0  0  0  0  0  4           0  0  0
   -2.1636   -1.6843    5.3747 C   0  0  0  0  0  4           0  0  0
   -4.1333   -1.0678   -1.0790 C   0  0  0  0  0  4           0  0  0
   -2.4421    0.7160    5.3242 C   0  0  0  0  0  4           0  0  0
   -4.5811   -2.3620   -0.8600 C   0  0  0  0  0  4           0  0  0
   -2.4108   -0.4811    6.0367 C   0  0  0  0  0  4           0  0  0
    1.5340   -0.0000    0.0000 C   0  0  0  0  0  4           0  0  0
    1.7025    2.4201    0.0366 C   0  0  0  0  0  4           0  0  0
    3.5745    1.0673    0.6835 C   0  0  0  0  0  4           0  0  0
   -1.7562   -0.5249    1.8122 C   0  0  0  0  0  4           0  0  0
   -2.8371   -3.3922    2.3421 C   0  0  0  0  0  4           0  0  0
   -1.6821   -2.9959    3.2655 C   0  0  0  0  0  4           0  0  0
   -0.5858    0.0000    1.3811 C   0  0  0  0  0  4           0  0  0
    0.0000    0.0000    0.0000 C   0  0  0  0  0  4           0  0  0
  1 14  1  0     0  0
  1 15  1  0     0  0
  1 16  1  0     0  0
  2  4  2  0     0  0
  2  6  1  0     0  0
  2 17  1  0     0  0
  3  5  2  0     0  0
  3  7  1  0     0  0
  3 17  1  0     0  0
  4  8  1  0     0  0
  4 18  1  0     0  0
  5  9  1  0     0  0
  5 19  1  0     0  0
  6 10  2  0     0  0
  7 11  2  0     0  0
  8 12  2  0     0  0
  9 13  2  0     0  0
 10 12  1  0     0  0
 11 13  1  0     0  0
 14 21  1  0     0  0
 17 20  2  0     0  0
 18 19  1  0     0  0
 20 21  1  0     0  0
M  END
> <standard_type>
pIC50

> <# Confs.>
25

> <canonical_smiles>
c3cc2c(/C(c1c(cccc1)CC2)=C\CCN(C)C)cc3

> <standard_relation>
=

> <Publication_ID>
nan

> <predicted_activity_value>
nan

> <actual_activity_value>
-1.0

> <Compound>
Amitryptiline

> <standard_units>
uM

> hash
13742214864579490031

$$$$
1
XXILIB    08252103503D 0   0.00000     0.00000

 21 23  0     1  0            999 V2000
    2.1132    1.1664    0.6734 N   0  0  2  0  0  3           0  0  0
   -2.2197   -0.1129    3.1873 C   0  0  0  0  0  4           0  0  0
   -2.9437   -0.0047    0.7017 C   0  0  0  0  0  4           0  0  0
   -3.1338   -1.0655    3.6902 C   0  0  0  0  0  4           0  0  0
   -3.7319   -1.1559    0.5365 C   0  0  0  0  0  4           0  0  0
   -1.6267    0.8035    4.0826 C   0  0  0  0  0  4           0  0  0
   -3.1838    1.1263   -0.0911 C   0  0  0  0  0  4           0  0  0
   -3.4038   -1.0727    5.0764 C   0  0  0  0  0  4           0  0  0
   -4.7377   -1.1660   -0.4390 C   0  0  0  0  0  4           0  0  0
   -1.9062    0.7708    5.4482 C   0  0  0  0  0  4           0  0  0
   -4.1871    1.1032   -1.0594 C   0  0  0  0  0  4           0  0  0
   -2.7938   -0.1711    5.9466 C   0  0  0  0  0  4           0  0  0
   -4.9606   -0.0421   -1.2350 C   0  0  0  0  0  4           0  0  0
    1.5340   -0.0000    0.0000 C   0  0  0  0  0  4           0  0  0
    1.7025    2.4201    0.0366 C   0  0  0  0  0  4           0  0  0
    3.5745    1.0673    0.6835 C   0  0  0  0  0  4           0  0  0
   -1.8907   -0.0000    1.7390 C   0  0  0  0  0  4           0  0  0
   -3.9104   -2.0832    2.8710 C   0  0  0  0  0  4           0  0  0
   -3.5039   -2.3557    1.4203 C   0  0  0  0  0  4           0  0  0
   -0.5858    0.0000    1.3811 C   0  0  0  0  0  4           0  0  0
    0.0000    0.0000    0.0000 C   0  0  0  0  0  4           0  0  0
  1 14  1  0     0  0
  1 15  1  0     0  0
  1 16  1  0     0  0
  2  4  2  0     0  0
  2  6  1  0     0  0
  2 17  1  0     0  0
  3  5  2  0     0  0
  3  7  1  0     0  0
  3 17  1  0     0  0
  4  8  1  0     0  0
  4 18  1  0     0  0
  5  9  1  0     0  0
  5 19  1  0     0  0
  6 10  2  0     0  0
  7 11  2  0     0  0
  8 12  2  0     0  0
  9 13  2  0     0  0
 10 12  1  0     0  0
 11 13  1  0     0  0
 14 21  1  0     0  0
 17 20  2  0     0  0
 18 19  1  0     0  0
 20 21  1  0     0  0
M  END
> <standard_type>
pIC50

> <# Confs.>
25

> <canonical_smiles>
c3cc2c(/C(c1c(cccc1)CC2)=C\CCN(C)C)cc3

> <standard_relation>
=

> <Publication_ID>
nan

> <predicted_activity_value>
nan

> <actual_activity_value>
-1.0

> <Compound>
Amitryptiline

> <standard_units>
uM

> hash
13742214864579490031

$$$$
1
XXILIB    08252103503D 0   0.00000     0.00000

 21 23  0     1  0            999 V2000
    2.1132    0.0000   -1.3469 N   0  0  2  0  0  3           0  0  0
    0.3751   -2.1432    2.2158 C   0  0  0  0  0  4           0  0  0
   -1.0280   -0.5391    3.6779 C   0  0  0  0  0  4           0  0  0
    1.4184   -2.4862    3.1040 C   0  0  0  0  0  4           0  0  0
   -0.1664   -0.2315    4.7453 C   0  0  0  0  0  4           0  0  0
    0.0367   -3.0387    1.1804 C   0  0  0  0  0  4           0  0  0
   -2.4166   -0.5084    3.8659 C   0  0  0  0  0  4           0  0  0
    2.1127   -3.6971    2.8897 C   0  0  0  0  0  4           0  0  0
   -0.7114    0.1068    5.9907 C   0  0  0  0  0  4           0  0  0
    0.7408   -4.2265    0.9883 C   0  0  0  0  0  4           0  0  0
   -2.9455   -0.1692    5.1107 C   0  0  0  0  0  4           0  0  0
    1.7852   -4.5533    1.8402 C   0  0  0  0  0  4           0  0  0
   -2.0947    0.1378    6.1708 C   0  0  0  0  0  4           0  0  0
    1.5340    0.0000    0.0000 C   0  0  0  0  0  4           0  0  0
    1.7025   -1.1784   -2.1141 C   0  0  0  0  0  4           0  0  0
    3.5745    0.0583   -1.2661 C   0  0  0  0  0  4           0  0  0
   -0.4360   -0.9091    2.3722 C   0  0  0  0  0  4           0  0  0
    1.8484   -1.6974    4.3294 C   0  0  0  0  0  4           0  0  0
    1.3277   -0.2735    4.5421 C   0  0  0  0  0  4           0  0  0
   -0.5858    0.0000    1.3811 C   0  0  0  0  0  4           0  0  0
    0.0000    0.0000    0.0000 C   0  0  0  0  0  4           0  0  0
  1 14  1  0     0  0
  1 15  1  0     0  0
  1 16  1  0     0  0
  2  4  2  0     0  0
  2  6  1  0     0  0
  2 17  1  0     0  0
  3  5  2  0     0  0
  3  7  1  0     0  0
  3 17  1  0     0  0
  4  8  1  0     0  0
  4 18  1  0     0  0
  5  9  1  0     0  0
  5 19  1  0     0  0
  6 10  2  0     0  0
  7 11  2  0     0  0
  8 12  2  0     0  0
  9 13  2  0     0  0
 10 12  1  0     0  0
 11 13  1  0     0  0
 14 21  1  0     0  0
 17 20  2  0     0  0
 18 19  1  0     0  0
 20 21  1  0     0  0
M  END
> <standard_type>
pIC50

> <# Confs.>
25

> <canonical_smiles>
c3cc2c(/C(c1c(cccc1)CC2)=C\CCN(C)C)cc3

> <standard_relation>
=

> <Publication_ID>
nan

> <predicted_activity_value>
nan

> <actual_activity_value>
-1.0

> <Compound>
Amitryptiline

> <standard_units>
uM

> hash
13742214864579490031

$$$$
1
XXILIB    08252103503D 0   0.00000     0.00000

 21 23  0     1  0            999 V2000
    2.1132    0.0000   -1.3469 N   0  0  2  0  0  3           0  0  0
   -1.8499   -2.1450    1.2529 C   0  0  0  0  0  4           0  0  0
   -1.9341   -0.5506    3.2862 C   0  0  0  0  0  4           0  0  0
   -3.2117   -2.4937    1.1188 C   0  0  0  0  0  4           0  0  0
   -3.3010   -0.2437    3.4058 C   0  0  0  0  0  4           0  0  0
   -0.8656   -3.0353    0.7745 C   0  0  0  0  0  4           0  0  0
   -1.1064   -0.5166    4.4171 C   0  0  0  0  0  4           0  0  0
   -3.5344   -3.7032    0.4652 C   0  0  0  0  0  4           0  0  0
   -3.8198    0.0996    4.6610 C   0  0  0  0  0  4           0  0  0
   -1.2113   -4.2211    0.1280 C   0  0  0  0  0  4           0  0  0
   -1.6361   -0.1739    5.6605 C   0  0  0  0  0  4           0  0  0
   -2.5482   -4.5528   -0.0328 C   0  0  0  0  0  4           0  0  0
   -2.9896    0.1346    5.7821 C   0  0  0  0  0  4           0  0  0
    1.5340   -0.0000   -0.0000 C   0  0  0  0  0  4           0  0  0
    3.5775    0.0000   -1.3079 C   0  0  0  0  0  4           0  0  0
    1.6342    1.1611   -2.1004 C   0  0  0  0  0  4           0  0  0
   -1.4020   -0.9146    1.9531 C   0  0  0  0  0  4           0  0  0
   -4.3947   -1.7134    1.6667 C   0  0  0  0  0  4           0  0  0
   -4.1912   -0.2884    2.1887 C   0  0  0  0  0  4           0  0  0
   -0.5858    0.0000    1.3811 C   0  0  0  0  0  4           0  0  0
    0.0000   -0.0000    0.0000 C   0  0  0  0  0  4           0  0  0
  1 14  1  0     0  0
  1 15  1  0     0  0
  1 16  1  0     0  0
  2  4  2  0     0  0
  2  6  1  0     0  0
  2 17  1  0     0  0
  3  5  2  0     0  0
  3  7  1  0     0  0
  3 17  1  0     0  0
  4  8  1  0     0  0
  4 18  1  0     0  0
  5  9  1  0     0  0
  5 19  1  0     0  0
  6 10  2  0     0  0
  7 11  2  0     0  0
  8 12  2  0     0  0
  9 13  2  0     0  0
 10 12  1  0     0  0
 11 13  1  0     0  0
 14 21  1  0     0  0
 17 20  2  0     0  0
 18 19  1  0     0  0
 20 21  1  0     0  0
M  END
> <standard_type>
pIC50

> <# Confs.>
25

> <canonical_smiles>
c3cc2c(/C(c1c(cccc1)CC2)=C\CCN(C)C)cc3

> <standard_relation>
=

> <Publication_ID>
nan

> <predicted_activity_value>
nan

> <actual_activity_value>
-1.0

> <Compound>
Amitryptiline

> <standard_units>
uM

> hash
13742214864579490031

$$$$
1
XXILIB    08252103503D 0   0.00000     0.00000

 21 23  0     1  0            999 V2000
    2.1132    1.1664    0.6734 N   0  0  2  0  0  3           0  0  0
   -1.8839    2.1238    1.2385 C   0  0  0  0  0  4           0  0  0
   -1.6862    0.7060    3.3913 C   0  0  0  0  0  4           0  0  0
   -1.7201    3.4291    1.7514 C   0  0  0  0  0  4           0  0  0
   -1.1352    1.6019    4.3245 C   0  0  0  0  0  4           0  0  0
   -2.6028    1.9459    0.0377 C   0  0  0  0  0  4           0  0  0
   -2.4935   -0.3533    3.8287 C   0  0  0  0  0  4           0  0  0
   -2.2445    4.5122    1.0123 C   0  0  0  0  0  4           0  0  0
   -1.3975    1.4194    5.6884 C   0  0  0  0  0  4           0  0  0
   -3.1058    3.0330   -0.6755 C   0  0  0  0  0  4           0  0  0
   -2.7470   -0.5228    5.1893 C   0  0  0  0  0  4           0  0  0
   -2.9209    4.3191   -0.1908 C   0  0  0  0  0  4           0  0  0
   -2.1994    0.3609    6.1173 C   0  0  0  0  0  4           0  0  0
    1.5340   -0.0000    0.0000 C   0  0  0  0  0  4           0  0  0
    1.7025    2.4201    0.0366 C   0  0  0  0  0  4           0  0  0
    3.5745    1.0673    0.6835 C   0  0  0  0  0  4           0  0  0
   -1.4020    0.9146    1.9531 C   0  0  0  0  0  4           0  0  0
   -1.0725    3.7969    3.0759 C   0  0  0  0  0  4           0  0  0
   -0.2731    2.7456    3.8506 C   0  0  0  0  0  4           0  0  0
   -0.5858   -0.0000    1.3811 C   0  0  0  0  0  4           0  0  0
    0.0000    0.0000   -0.0000 C   0  0  0  0  0  4           0  0  0
  1 14  1  0     0  0
  1 15  1  0     0  0
  1 16  1  0     0  0
  2  4  2  0     0  0
  2  6  1  0     0  0
  2 17  1  0     0  0
  3  5  2  0     0  0
  3  7  1  0     0  0
  3 17  1  0     0  0
  4  8  1  0     0  0
  4 18  1  0     0  0
  5  9  1  0     0  0
  5 19  1  0     0  0
  6 10  2  0     0  0
  7 11  2  0     0  0
  8 12  2  0     0  0
  9 13  2  0     0  0
 10 12  1  0     0  0
 11 13  1  0     0  0
 14 21  1  0     0  0
 17 20  2  0     0  0
 18 19  1  0     0  0
 20 21  1  0     0  0
M  END
> <standard_type>
pIC50

> <# Confs.>
25

> <canonical_smiles>
c3cc2c(/C(c1c(cccc1)CC2)=C\CCN(C)C)cc3

> <standard_relation>
=

> <Publication_ID>
nan

> <predicted_activity_value>
nan

> <actual_activity_value>
-1.0

> <Compound>
Amitryptiline

> <standard_units>
uM

> hash
13742214864579490031

$$$$
1
XXILIB    08252103503D 0   0.00000     0.00000

 21 23  0     1  0            999 V2000
    2.1132   -1.1664    0.6734 N   0  0  2  0  0  3           0  0  0
   -1.7628    0.7550    3.3787 C   0  0  0  0  0  4           0  0  0
   -1.8148    2.1121    1.1729 C   0  0  0  0  0  4           0  0  0
   -1.6167    1.7926    4.3262 C   0  0  0  0  0  4           0  0  0
   -1.3123    3.3703    1.5445 C   0  0  0  0  0  4           0  0  0
   -2.3186   -0.4749    3.7918 C   0  0  0  0  0  4           0  0  0
   -2.7145    2.0063    0.1029 C   0  0  0  0  0  4           0  0  0
   -2.0184    1.5485    5.6579 C   0  0  0  0  0  4           0  0  0
   -1.6993    4.5056    0.8204 C   0  0  0  0  0  4           0  0  0
   -2.7005   -0.6920    5.1149 C   0  0  0  0  0  4           0  0  0
   -3.0936    3.1441   -0.6082 C   0  0  0  0  0  4           0  0  0
   -2.5479    0.3205    6.0502 C   0  0  0  0  0  4           0  0  0
   -2.5837    4.3909   -0.2525 C   0  0  0  0  0  4           0  0  0
    1.5340    0.0000    0.0000 C   0  0  0  0  0  4           0  0  0
    3.5775   -1.1327    0.6539 C   0  0  0  0  0  4           0  0  0
    1.6342   -2.3995    0.0447 C   0  0  0  0  0  4           0  0  0
   -1.4017    0.9207    1.9435 C   0  0  0  0  0  4           0  0  0
   -1.0995    3.1945    4.0483 C   0  0  0  0  0  4           0  0  0
   -0.3839    3.4888    2.7266 C   0  0  0  0  0  4           0  0  0
   -0.5858   -0.0000    1.3811 C   0  0  0  0  0  4           0  0  0
    0.0000    0.0000   -0.0000 C   0  0  0  0  0  4           0  0  0
  1 14  1  0     0  0
  1 15  1  0     0  0
  1 16  1  0     0  0
  2  4  2  0     0  0
  2  6  1  0     0  0
  2 17  1  0     0  0
  3  5  2  0     0  0
  3  7  1  0     0  0
  3 17  1  0     0  0
  4  8  1  0     0  0
  4 18  1  0     0  0
  5  9  1  0     0  0
  5 19  1  0     0  0
  6 10  2  0     0  0
  7 11  2  0     0  0
  8 12  2  0     0  0
  9 13  2  0     0  0
 10 12  1  0     0  0
 11 13  1  0     0  0
 14 21  1  0     0  0
 17 20  2  0     0  0
 18 19  1  0     0  0
 20 21  1  0     0  0
M  END
> <standard_type>
pIC50

> <# Confs.>
25

> <canonical_smiles>
c3cc2c(/C(c1c(cccc1)CC2)=C\CCN(C)C)cc3

> <standard_relation>
=

> <Publication_ID>
nan

> <predicted_activity_value>
nan

> <actual_activity_value>
-1.0

> <Compound>
Amitryptiline

> <standard_units>
uM

> hash
13742214864579490031

$$$$
1
XXILIB    08252103503D 0   0.00000     0.00000

 21 23  0     1  0            999 V2000
    2.1132    1.1664    0.6734 N   0  0  2  0  0  3           0  0  0
   -0.7607   -2.4613    1.7341 C   0  0  0  0  0  4           0  0  0
   -1.3366   -0.7117    3.5470 C   0  0  0  0  0  4           0  0  0
   -0.0366   -3.4121    2.4869 C   0  0  0  0  0  4           0  0  0
   -0.4826   -1.0503    4.6112 C   0  0  0  0  0  4           0  0  0
   -1.4230   -2.8789    0.5613 C   0  0  0  0  0  4           0  0  0
   -2.5624   -0.0827    3.8040 C   0  0  0  0  0  4           0  0  0
    0.0318   -4.7384    2.0072 C   0  0  0  0  0  4           0  0  0
   -0.8700   -0.7496    5.9234 C   0  0  0  0  0  4           0  0  0
   -1.3364   -4.1942    0.1072 C   0  0  0  0  0  4           0  0  0
   -2.9350    0.2115    5.1151 C   0  0  0  0  0  4           0  0  0
   -0.6020   -5.1242    0.8277 C   0  0  0  0  0  4           0  0  0
   -2.0906   -0.1212    6.1725 C   0  0  0  0  0  4           0  0  0
    1.5340   -0.0000    0.0000 C   0  0  0  0  0  4           0  0  0
    1.7025    2.4201    0.0366 C   0  0  0  0  0  4           0  0  0
    3.5745    1.0673    0.6835 C   0  0  0  0  0  4           0  0  0
   -0.9192   -1.0498    2.1672 C   0  0  0  0  0  4           0  0  0
    0.6487   -3.1661    3.8206 C   0  0  0  0  0  4           0  0  0
    0.8323   -1.7348    4.3319 C   0  0  0  0  0  4           0  0  0
   -0.5858    0.0000    1.3811 C   0  0  0  0  0  4           0  0  0
    0.0000    0.0000    0.0000 C   0  0  0  0  0  4           0  0  0
  1 14  1  0     0  0
  1 15  1  0     0  0
  1 16  1  0     0  0
  2  4  2  0     0  0
  2  6  1  0     0  0
  2 17  1  0     0  0
  3  5  2  0     0  0
  3  7  1  0     0  0
  3 17  1  0     0  0
  4  8  1  0     0  0
  4 18  1  0     0  0
  5  9  1  0     0  0
  5 19  1  0     0  0
  6 10  2  0     0  0
  7 11  2  0     0  0
  8 12  2  0     0  0
  9 13  2  0     0  0
 10 12  1  0     0  0
 11 13  1  0     0  0
 14 21  1  0     0  0
 17 20  2  0     0  0
 18 19  1  0     0  0
 20 21  1  0     0  0
M  END
> <standard_type>
pIC50

> <# Confs.>
25

> <canonical_smiles>
c3cc2c(/C(c1c(cccc1)CC2)=C\CCN(C)C)cc3

> <standard_relation>
=

> <Publication_ID>
nan

> <predicted_activity_value>
nan

> <actual_activity_value>
-1.0

> <Compound>
Amitryptiline

> <standard_units>
uM

> hash
13742214864579490031

$$$$
1
XXILIB    08252103503D 0   0.00000     0.00000

 21 23  0     1  0            999 V2000
    2.1132    0.0000   -1.3469 N   0  0  2  0  0  3           0  0  0
   -2.7124   -1.2105    0.9063 C   0  0  0  0  0  4           0  0  0
   -1.9752   -0.4897    3.2762 C   0  0  0  0  0  4           0  0  0
   -3.1884   -2.5178    1.1501 C   0  0  0  0  0  4           0  0  0
   -1.9443   -1.6997    3.9913 C   0  0  0  0  0  4           0  0  0
   -3.2162   -0.4947   -0.1993 C   0  0  0  0  0  4           0  0  0
   -2.2262    0.7152    3.9466 C   0  0  0  0  0  4           0  0  0
   -4.1203   -3.0733    0.2461 C   0  0  0  0  0  4           0  0  0
   -2.1636   -1.6843    5.3747 C   0  0  0  0  0  4           0  0  0
   -4.1333   -1.0678   -1.0790 C   0  0  0  0  0  4           0  0  0
   -2.4421    0.7160    5.3242 C   0  0  0  0  0  4           0  0  0
   -4.5811   -2.3620   -0.8600 C   0  0  0  0  0  4           0  0  0
   -2.4108   -0.4811    6.0367 C   0  0  0  0  0  4           0  0  0
    1.5340   -0.0000   -0.0000 C   0  0  0  0  0  4           0  0  0
    3.5775    0.0000   -1.3079 C   0  0  0  0  0  4           0  0  0
    1.6342    1.1611   -2.1004 C   0  0  0  0  0  4           0  0  0
   -1.7562   -0.5249    1.8122 C   0  0  0  0  0  4           0  0  0
   -2.8371   -3.3922    2.3421 C   0  0  0  0  0  4           0  0  0
   -1.6821   -2.9959    3.2655 C   0  0  0  0  0  4           0  0  0
   -0.5858    0.0000    1.3811 C   0  0  0  0  0  4           0  0  0
    0.0000    0.0000    0.0000 C   0  0  0  0  0  4           0  0  0
  1 14  1  0     0  0
  1 15  1  0     0  0
  1 16  1  0     0  0
  2  4  2  0     0  0
  2  6  1  0     0  0
  2 17  1  0     0  0
  3  5  2  0     0  0
  3  7  1  0     0  0
  3 17  1  0     0  0
  4  8  1  0     0  0
  4 18  1  0     0  0
  5  9  1  0     0  0
  5 19  1  0     0  0
  6 10  2  0     0  0
  7 11  2  0     0  0
  8 12  2  0     0  0
  9 13  2  0     0  0
 10 12  1  0     0  0
 11 13  1  0     0  0
 14 21  1  0     0  0
 17 20  2  0     0  0
 18 19  1  0     0  0
 20 21  1  0     0  0
M  END
> <standard_type>
pIC50

> <# Confs.>
25

> <canonical_smiles>
c3cc2c(/C(c1c(cccc1)CC2)=C\CCN(C)C)cc3

> <standard_relation>
=

> <Publication_ID>
nan

> <predicted_activity_value>
nan

> <actual_activity_value>
-1.0

> <Compound>
Amitryptiline

> <standard_units>
uM

> hash
13742214864579490031

$$$$
1
XXILIB    08252103503D 0   0.00000     0.00000

 21 23  0     1  0            999 V2000
    2.1132   -1.1664    0.6734 N   0  0  2  0  0  3           0  0  0
   -2.0692   -0.4972    3.2511 C   0  0  0  0  0  4           0  0  0
   -2.6411   -1.2221    0.8301 C   0  0  0  0  0  4           0  0  0
   -2.4652   -1.6448    3.9737 C   0  0  0  0  0  4           0  0  0
   -2.8019   -2.6142    0.9309 C   0  0  0  0  0  4           0  0  0
   -2.0084    0.7442    3.9207 C   0  0  0  0  0  4           0  0  0
   -3.3364   -0.5079   -0.1558 C   0  0  0  0  0  4           0  0  0
   -2.7680   -1.5047    5.3461 C   0  0  0  0  0  4           0  0  0
   -3.6419   -3.2763    0.0258 C   0  0  0  0  0  4           0  0  0
   -2.3070    0.8537    5.2782 C   0  0  0  0  0  4           0  0  0
   -4.1684   -1.1788   -1.0515 C   0  0  0  0  0  4           0  0  0
   -2.6842   -0.2732    5.9931 C   0  0  0  0  0  4           0  0  0
   -4.3185   -2.5610   -0.9626 C   0  0  0  0  0  4           0  0  0
    1.5340    0.0000    0.0000 C   0  0  0  0  0  4           0  0  0
    3.5775   -1.1327    0.6539 C   0  0  0  0  0  4           0  0  0
    1.6342   -2.3995    0.0447 C   0  0  0  0  0  4           0  0  0
   -1.7598   -0.5308    1.7945 C   0  0  0  0  0  4           0  0  0
   -2.6457   -3.0435    3.4074 C   0  0  0  0  0  4           0  0  0
   -2.0901   -3.3757    2.0199 C   0  0  0  0  0  4           0  0  0
   -0.5858    0.0000    1.3811 C   0  0  0  0  0  4           0  0  0
    0.0000    0.0000    0.0000 C   0  0  0  0  0  4           0  0  0
  1 14  1  0     0  0
  1 15  1  0     0  0
  1 16  1  0     0  0
  2  4  2  0     0  0
  2  6  1  0     0  0
  2 17  1  0     0  0
  3  5  2  0     0  0
  3  7  1  0     0  0
  3 17  1  0     0  0
  4  8  1  0     0  0
  4 18  1  0     0  0
  5  9  1  0     0  0
  5 19  1  0     0  0
  6 10  2  0     0  0
  7 11  2  0     0  0
  8 12  2  0     0  0
  9 13  2  0     0  0
 10 12  1  0     0  0
 11 13  1  0     0  0
 14 21  1  0     0  0
 17 20  2  0     0  0
 18 19  1  0     0  0
 20 21  1  0     0  0
M  END
> <standard_type>
pIC50

> <# Confs.>
25

> <canonical_smiles>
c3cc2c(/C(c1c(cccc1)CC2)=C\CCN(C)C)cc3

> <standard_relation>
=

> <Publication_ID>
nan

> <predicted_activity_value>
nan

> <actual_activity_value>
-1.0

> <Compound>
Amitryptiline

> <standard_units>
uM

> hash
13742214864579490031

$$$$
1
XXILIB    08252103503D 0   0.00000     0.00000

 21 23  0     1  0            999 V2000
    2.1132    0.0000   -1.3469 N   0  0  2  0  0  3           0  0  0
    0.3851    2.1450    2.2008 C   0  0  0  0  0  4           0  0  0
   -1.0183    0.5506    3.6746 C   0  0  0  0  0  4           0  0  0
    1.4280    2.4937    3.0866 C   0  0  0  0  0  4           0  0  0
   -0.1542    0.2437    4.7405 C   0  0  0  0  0  4           0  0  0
    0.0448    3.0353    1.1607 C   0  0  0  0  0  4           0  0  0
   -2.4067    0.5166    3.8656 C   0  0  0  0  0  4           0  0  0
    2.1222    3.7032    2.8644 C   0  0  0  0  0  4           0  0  0
   -0.6961   -0.0996    5.9859 C   0  0  0  0  0  4           0  0  0
    0.7499    4.2211    0.9599 C   0  0  0  0  0  4           0  0  0
   -2.9324    0.1739    5.1106 C   0  0  0  0  0  4           0  0  0
    1.7947    4.5528    1.8092 C   0  0  0  0  0  4           0  0  0
   -2.0791   -0.1346    6.1683 C   0  0  0  0  0  4           0  0  0
    1.5340    0.0000    0.0000 C   0  0  0  0  0  4           0  0  0
    1.7025   -1.1784   -2.1141 C   0  0  0  0  0  4           0  0  0
    3.5745    0.0583   -1.2661 C   0  0  0  0  0  4           0  0  0
   -0.4297    0.9146    2.3655 C   0  0  0  0  0  4           0  0  0
    1.8563    1.7134    4.3181 C   0  0  0  0  0  4           0  0  0
    1.3395    0.2884    4.5345 C   0  0  0  0  0  4           0  0  0
   -0.5858    0.0000    1.3811 C   0  0  0  0  0  4           0  0  0
    0.0000    0.0000    0.0000 C   0  0  0  0  0  4           0  0  0
  1 14  1  0     0  0
  1 15  1  0     0  0
  1 16  1  0     0  0
  2  4  2  0     0  0
  2  6  1  0     0  0
  2 17  1  0     0  0
  3  5  2  0     0  0
  3  7  1  0     0  0
  3 17  1  0     0  0
  4  8  1  0     0  0
  4 18  1  0     0  0
  5  9  1  0     0  0
  5 19  1  0     0  0
  6 10  2  0     0  0
  7 11  2  0     0  0
  8 12  2  0     0  0
  9 13  2  0     0  0
 10 12  1  0     0  0
 11 13  1  0     0  0
 14 21  1  0     0  0
 17 20  2  0     0  0
 18 19  1  0     0  0
 20 21  1  0     0  0
M  END
> <standard_type>
pIC50

> <# Confs.>
25

> <canonical_smiles>
c3cc2c(/C(c1c(cccc1)CC2)=C\CCN(C)C)cc3

> <standard_relation>
=

> <Publication_ID>
nan

> <predicted_activity_value>
nan

> <actual_activity_value>
-1.0

> <Compound>
Amitryptiline

> <standard_units>
uM

> hash
13742214864579490031

$$$$
1
XXILIB    08252103503D 0   0.00000     0.00000

 21 23  0     1  0            999 V2000
    2.1132    0.0000   -1.3469 N   0  0  2  0  0  3           0  0  0
   -3.0053    0.0232    0.7821 C   0  0  0  0  0  4           0  0  0
   -2.1341   -0.1546    3.2087 C   0  0  0  0  0  4           0  0  0
   -4.0408   -0.9374    0.7886 C   0  0  0  0  0  4           0  0  0
   -2.6982   -1.3562    3.6715 C   0  0  0  0  0  4           0  0  0
   -3.0691    1.0909   -0.1369 C   0  0  0  0  0  4           0  0  0
   -1.8343    0.8736    4.1129 C   0  0  0  0  0  4           0  0  0
   -5.0789   -0.8130   -0.1606 C   0  0  0  0  0  4           0  0  0
   -2.9521   -1.5120    5.0403 C   0  0  0  0  0  4           0  0  0
   -4.1035    1.1885   -1.0664 C   0  0  0  0  0  4           0  0  0
   -2.0916    0.7047    5.4729 C   0  0  0  0  0  4           0  0  0
   -5.1068    0.2311   -1.0830 C   0  0  0  0  0  4           0  0  0
   -2.6492   -0.4855    5.9356 C   0  0  0  0  0  4           0  0  0
    1.5340    0.0000    0.0000 C   0  0  0  0  0  4           0  0  0
    1.7025   -1.1784   -2.1141 C   0  0  0  0  0  4           0  0  0
    3.5745    0.0583   -1.2661 C   0  0  0  0  0  4           0  0  0
   -1.8856   -0.0000    1.7573 C   0  0  0  0  0  4           0  0  0
   -4.1892   -2.0890    1.7686 C   0  0  0  0  0  4           0  0  0
   -3.0274   -2.4578    2.6949 C   0  0  0  0  0  4           0  0  0
   -0.5858    0.0000    1.3811 C   0  0  0  0  0  4           0  0  0
    0.0000    0.0000    0.0000 C   0  0  0  0  0  4           0  0  0
  1 14  1  0     0  0
  1 15  1  0     0  0
  1 16  1  0     0  0
  2  4  2  0     0  0
  2  6  1  0     0  0
  2 17  1  0     0  0
  3  5  2  0     0  0
  3  7  1  0     0  0
  3 17  1  0     0  0
  4  8  1  0     0  0
  4 18  1  0     0  0
  5  9  1  0     0  0
  5 19  1  0     0  0
  6 10  2  0     0  0
  7 11  2  0     0  0
  8 12  2  0     0  0
  9 13  2  0     0  0
 10 12  1  0     0  0
 11 13  1  0     0  0
 14 21  1  0     0  0
 17 20  2  0     0  0
 18 19  1  0     0  0
 20 21  1  0     0  0
M  END
> <standard_type>
pIC50

> <# Confs.>
25

> <canonical_smiles>
c3cc2c(/C(c1c(cccc1)CC2)=C\CCN(C)C)cc3

> <standard_relation>
=

> <Publication_ID>
nan

> <predicted_activity_value>
nan

> <actual_activity_value>
-1.0

> <Compound>
Amitryptiline

> <standard_units>
uM

> hash
13742214864579490031

$$$$
1
XXILIB    08252103503D 0   0.00000     0.00000

 21 23  0     1  0            999 V2000
    2.1132    0.0000   -1.3469 N   0  0  2  0  0  3           0  0  0
   -2.2250    0.1146    3.1826 C   0  0  0  0  0  4           0  0  0
   -2.9405    0.0057    0.6954 C   0  0  0  0  0  4           0  0  0
   -3.1384    1.0703    3.6808 C   0  0  0  0  0  4           0  0  0
   -3.7208    1.1611    0.5230 C   0  0  0  0  0  4           0  0  0
   -1.6389   -0.8038    4.0801 C   0  0  0  0  0  4           0  0  0
   -3.1822   -1.1262   -0.0955 C   0  0  0  0  0  4           0  0  0
   -3.4146    1.0783    5.0657 C   0  0  0  0  0  4           0  0  0
   -4.7189    1.1754   -0.4603 C   0  0  0  0  0  4           0  0  0
   -1.9237   -0.7694    5.4444 C   0  0  0  0  0  4           0  0  0
   -4.1801   -1.1001   -1.0690 C   0  0  0  0  0  4           0  0  0
   -2.8112    0.1748    5.9385 C   0  0  0  0  0  4           0  0  0
   -4.9442    0.0501   -1.2537 C   0  0  0  0  0  4           0  0  0
    1.5340   -0.0000   -0.0000 C   0  0  0  0  0  4           0  0  0
    3.5775    0.0000   -1.3079 C   0  0  0  0  0  4           0  0  0
    1.6342    1.1611   -2.1004 C   0  0  0  0  0  4           0  0  0
   -1.8911   -0.0000    1.7360 C   0  0  0  0  0  4           0  0  0
   -3.9082    2.0896    2.8571 C   0  0  0  0  0  4           0  0  0
   -3.4928    2.3603    1.4080 C   0  0  0  0  0  4           0  0  0
   -0.5858    0.0000    1.3811 C   0  0  0  0  0  4           0  0  0
    0.0000    0.0000    0.0000 C   0  0  0  0  0  4           0  0  0
  1 14  1  0     0  0
  1 15  1  0     0  0
  1 16  1  0     0  0
  2  4  2  0     0  0
  2  6  1  0     0  0
  2 17  1  0     0  0
  3  5  2  0     0  0
  3  7  1  0     0  0
  3 17  1  0     0  0
  4  8  1  0     0  0
  4 18  1  0     0  0
  5  9  1  0     0  0
  5 19  1  0     0  0
  6 10  2  0     0  0
  7 11  2  0     0  0
  8 12  2  0     0  0
  9 13  2  0     0  0
 10 12  1  0     0  0
 11 13  1  0     0  0
 14 21  1  0     0  0
 17 20  2  0     0  0
 18 19  1  0     0  0
 20 21  1  0     0  0
M  END
> <standard_type>
pIC50

> <# Confs.>
25

> <canonical_smiles>
c3cc2c(/C(c1c(cccc1)CC2)=C\CCN(C)C)cc3

> <standard_relation>
=

> <Publication_ID>
nan

> <predicted_activity_value>
nan

> <actual_activity_value>
-1.0

> <Compound>
Amitryptiline

> <standard_units>
uM

> hash
13742214864579490031

$$$$
1
XXILIB    08252103503D 0   0.00000     0.00000

 21 23  0     1  0            999 V2000
    2.1132    1.1664    0.6734 N   0  0  2  0  0  3           0  0  0
   -2.6876   -1.2507    0.8976 C   0  0  0  0  0  4           0  0  0
   -2.1262   -0.2281    3.2047 C   0  0  0  0  0  4           0  0  0
   -4.0488   -0.8997    0.7637 C   0  0  0  0  0  4           0  0  0
   -3.2024    0.6435    3.4477 C   0  0  0  0  0  4           0  0  0
   -2.2018   -2.3814    0.2078 C   0  0  0  0  0  4           0  0  0
   -1.4312   -0.8005    4.2793 C   0  0  0  0  0  4           0  0  0
   -4.8601   -1.6710   -0.0971 C   0  0  0  0  0  4           0  0  0
   -3.5646    0.9346    4.7692 C   0  0  0  0  0  4           0  0  0
   -3.0229   -3.1230   -0.6404 C   0  0  0  0  0  4           0  0  0
   -1.8029   -0.5026    5.5897 C   0  0  0  0  0  4           0  0  0
   -4.3530   -2.7635   -0.7983 C   0  0  0  0  0  4           0  0  0
   -2.8666    0.3638    5.8343 C   0  0  0  0  0  4           0  0  0
    1.5340   -0.0000    0.0000 C   0  0  0  0  0  4           0  0  0
    1.7025    2.4201    0.0366 C   0  0  0  0  0  4           0  0  0
    3.5745    1.0673    0.6835 C   0  0  0  0  0  4           0  0  0
   -1.7579   -0.5281    1.8022 C   0  0  0  0  0  4           0  0  0
   -4.7647    0.2137    1.5098 C   0  0  0  0  0  4           0  0  0
   -3.9534    1.2522    2.2896 C   0  0  0  0  0  4           0  0  0
   -0.5858    0.0000    1.3811 C   0  0  0  0  0  4           0  0  0
    0.0000    0.0000    0.0000 C   0  0  0  0  0  4           0  0  0
  1 14  1  0     0  0
  1 15  1  0     0  0
  1 16  1  0     0  0
  2  4  2  0     0  0
  2  6  1  0     0  0
  2 17  1  0     0  0
  3  5  2  0     0  0
  3  7  1  0     0  0
  3 17  1  0     0  0
  4  8  1  0     0  0
  4 18  1  0     0  0
  5  9  1  0     0  0
  5 19  1  0     0  0
  6 10  2  0     0  0
  7 11  2  0     0  0
  8 12  2  0     0  0
  9 13  2  0     0  0
 10 12  1  0     0  0
 11 13  1  0     0  0
 14 21  1  0     0  0
 17 20  2  0     0  0
 18 19  1  0     0  0
 20 21  1  0     0  0
M  END
> <standard_type>
pIC50

> <# Confs.>
25

> <canonical_smiles>
c3cc2c(/C(c1c(cccc1)CC2)=C\CCN(C)C)cc3

> <standard_relation>
=

> <Publication_ID>
nan

> <predicted_activity_value>
nan

> <actual_activity_value>
-1.0

> <Compound>
Amitryptiline

> <standard_units>
uM

> hash
13742214864579490031

$$$$
1
XXILIB    08252103503D 0   0.00000     0.00000

 21 23  0     1  0            999 V2000
    2.1132   -1.1664    0.6734 N   0  0  2  0  0  3           0  0  0
   -1.8908   -2.1200    1.2548 C   0  0  0  0  0  4           0  0  0
   -1.6832   -0.6937    3.4000 C   0  0  0  0  0  4           0  0  0
   -1.7228   -3.4236    1.7717 C   0  0  0  0  0  4           0  0  0
   -1.1334   -1.5877    4.3352 C   0  0  0  0  0  4           0  0  0
   -2.6137   -1.9477    0.0563 C   0  0  0  0  0  4           0  0  0
   -2.4927    0.3652    3.8336 C   0  0  0  0  0  4           0  0  0
   -2.2496   -4.5101    1.0395 C   0  0  0  0  0  4           0  0  0
   -1.4015   -1.4052    5.6979 C   0  0  0  0  0  4           0  0  0
   -3.1204   -3.0380   -0.6494 C   0  0  0  0  0  4           0  0  0
   -2.7508    0.5355    5.1933 C   0  0  0  0  0  4           0  0  0
   -2.9323   -4.3222   -0.1607 C   0  0  0  0  0  4           0  0  0
   -2.2063   -0.3478    6.1234 C   0  0  0  0  0  4           0  0  0
    1.5340    0.0000    0.0000 C   0  0  0  0  0  4           0  0  0
    3.5775   -1.1327    0.6539 C   0  0  0  0  0  4           0  0  0
    1.6342   -2.3995    0.0447 C   0  0  0  0  0  4           0  0  0
   -1.4024   -0.9091    1.9623 C   0  0  0  0  0  4           0  0  0
   -1.0663   -3.7864    3.0931 C   0  0  0  0  0  4           0  0  0
   -0.2693   -2.7312    3.8647 C   0  0  0  0  0  4           0  0  0
   -0.5858    0.0000    1.3811 C   0  0  0  0  0  4           0  0  0
    0.0000   -0.0000    0.0000 C   0  0  0  0  0  4           0  0  0
  1 14  1  0     0  0
  1 15  1  0     0  0
  1 16  1  0     0  0
  2  4  2  0     0  0
  2  6  1  0     0  0
  2 17  1  0     0  0
  3  5  2  0     0  0
  3  7  1  0     0  0
  3 17  1  0     0  0
  4  8  1  0     0  0
  4 18  1  0     0  0
  5  9  1  0     0  0
  5 19  1  0     0  0
  6 10  2  0     0  0
  7 11  2  0     0  0
  8 12  2  0     0  0
  9 13  2  0     0  0
 10 12  1  0     0  0
 11 13  1  0     0  0
 14 21  1  0     0  0
 17 20  2  0     0  0
 18 19  1  0     0  0
 20 21  1  0     0  0
M  END
> <standard_type>
pIC50

> <# Confs.>
25

> <canonical_smiles>
c3cc2c(/C(c1c(cccc1)CC2)=C\CCN(C)C)cc3

> <standard_relation>
=

> <Publication_ID>
nan

> <predicted_activity_value>
nan

> <actual_activity_value>
-1.0

> <Compound>
Amitryptiline

> <standard_units>
uM

> hash
13742214864579490031

$$$$
41
XXILIB    08252103503D 0   0.00000     0.00000

 19 21  0     1  0            999 V2000
   -1.7583    1.3546    2.8024 O   0  0  0  0  0  2           0  0  0
   -0.4956    1.8470   -1.5636 O   0  0  0  0  0  2           0  0  0
   -1.2845    1.9235    0.6023 N   0  0  0  0  0  3           0  0  0
   -0.4982   -0.0000    1.3778 N   0  0  0  0  0  3           0  0  0
    1.5135    0.0000   -0.0000 C   0  0  0  0  0  4           0  0  0
   -0.5826   -1.1396   -0.8189 C   0  0  0  0  0  4           0  0  0
    2.2387    1.0438   -0.6026 C   0  0  0  0  0  4           0  0  0
    2.2390   -1.0756    0.5431 C   0  0  0  0  0  4           0  0  0
   -0.2248   -1.3087   -2.1693 C   0  0  0  0  0  4           0  0  0
   -1.5369   -2.0195   -0.2780 C   0  0  0  0  0  4           0  0  0
    3.6357    1.0279   -0.6310 C   0  0  0  0  0  4           0  0  0
    3.6360   -1.0894    0.5161 C   0  0  0  0  0  4           0  0  0
   -0.7738   -2.3383   -2.9379 C   0  0  0  0  0  4           0  0  0
   -2.0843   -3.0497   -1.0474 C   0  0  0  0  0  4           0  0  0
    4.3339   -0.0360   -0.0675 C   0  0  0  0  0  4           0  0  0
   -1.6999   -3.2115   -2.3755 C   0  0  0  0  0  4           0  0  0
   -1.2421    1.1263    1.7172 C   0  0  0  0  0  4           0  0  0
   -0.6033    1.3556   -0.4461 C   0  0  0  0  0  4           0  0  0
    0.0000    0.0000    0.0000 C   0  0  1  0  0  4           0  0  0
  1 17  2  0     0  0
  2 18  2  0     0  0
  3 17  1  0     0  0
  3 18  1  0     0  0
  4 17  1  0     0  0
  4 19  1  0     0  0
  5  7  2  0     0  0
  5  8  1  0     0  0
  5 19  1  0     0  0
  6  9  2  0     0  0
  6 10  1  0     0  0
  6 19  1  0     0  0
  7 11  1  0     0  0
  8 12  2  0     0  0
  9 13  1  0     0  0
 10 14  2  0     0  0
 11 15  2  0     0  0
 12 15  1  0     0  0
 13 16  2  0     0  0
 14 16  1  0     0  0
 18 19  1  0     0  0
M  END
> <standard_type>
pIC50

> <# Confs.>
12

> <canonical_smiles>
O=C1NC(C(C2=CC=CC=C2)(N1)C3=CC=CC=C3)=O

> <standard_relation>
=

> <Publication_ID>
nan

> <predicted_activity_value>
nan

> <actual_activity_value>
-2.380211241711606

> <Compound>
Phenytoin

> <standard_units>
uM

> hash
3478082585957382592

$$$$
41
XXILIB    08252103503D 0   0.00000     0.00000

 19 21  0     1  0            999 V2000
   -1.8141   -1.3471    2.7722 O   0  0  0  0  0  2           0  0  0
   -0.4414   -1.8703   -1.5552 O   0  0  0  0  0  2           0  0  0
   -1.2938   -1.9248    0.5855 N   0  0  0  0  0  3           0  0  0
   -0.5221   -0.0000    1.3700 N   0  0  0  0  0  3           0  0  0
    1.5135   -0.0000    0.0000 C   0  0  0  0  0  4           0  0  0
   -0.5788    1.1477   -0.8104 C   0  0  0  0  0  4           0  0  0
    2.2387   -1.2052    0.0000 C   0  0  0  0  0  4           0  0  0
    2.2390    1.2031    0.0674 C   0  0  0  0  0  4           0  0  0
   -0.2100    1.3336   -2.1556 C   0  0  0  0  0  4           0  0  0
   -1.4475    2.0901   -0.2321 C   0  0  0  0  0  4           0  0  0
    3.6357   -1.2057    0.0325 C   0  0  0  0  0  4           0  0  0
    3.6360    1.2015    0.0977 C   0  0  0  0  0  4           0  0  0
   -0.7172    2.4002   -2.9021 C   0  0  0  0  0  4           0  0  0
   -1.9552    3.1558   -0.9802 C   0  0  0  0  0  4           0  0  0
    4.3339   -0.0026    0.0765 C   0  0  0  0  0  4           0  0  0
   -1.5933    3.3084   -2.3157 C   0  0  0  0  0  4           0  0  0
   -1.2752   -1.1233    1.6972 C   0  0  0  0  0  4           0  0  0
   -0.5842   -1.3646   -0.4481 C   0  0  0  0  0  4           0  0  0
    0.0000   -0.0000    0.0000 C   0  0  1  0  0  4           0  0  0
  1 17  2  0     0  0
  2 18  2  0     0  0
  3 17  1  0     0  0
  3 18  1  0     0  0
  4 17  1  0     0  0
  4 19  1  0     0  0
  5  7  2  0     0  0
  5  8  1  0     0  0
  5 19  1  0     0  0
  6  9  2  0     0  0
  6 10  1  0     0  0
  6 19  1  0     0  0
  7 11  1  0     0  0
  8 12  2  0     0  0
  9 13  1  0     0  0
 10 14  2  0     0  0
 11 15  2  0     0  0
 12 15  1  0     0  0
 13 16  2  0     0  0
 14 16  1  0     0  0
 18 19  1  0     0  0
M  END
> <standard_type>
pIC50

> <# Confs.>
12

> <canonical_smiles>
O=C1NC(C(C2=CC=CC=C2)(N1)C3=CC=CC=C3)=O

> <standard_relation>
=

> <Publication_ID>
nan

> <predicted_activity_value>
nan

> <actual_activity_value>
-2.380211241711606

> <Compound>
Phenytoin

> <standard_units>
uM

> hash
3478082585957382592

$$$$
41
XXILIB    08252103503D 0   0.00000     0.00000

 19 21  0     1  0            999 V2000
   -1.8141   -1.3471    2.7722 O   0  0  0  0  0  2           0  0  0
   -0.4414   -1.8703   -1.5552 O   0  0  0  0  0  2           0  0  0
   -1.2938   -1.9248    0.5855 N   0  0  0  0  0  3           0  0  0
   -0.5221    0.0000    1.3700 N   0  0  0  0  0  3           0  0  0
    1.5135    0.0000    0.0000 C   0  0  0  0  0  4           0  0  0
   -0.5788    1.1477   -0.8104 C   0  0  0  0  0  4           0  0  0
    2.2387    0.6026    1.0438 C   0  0  0  0  0  4           0  0  0
    2.2390   -0.5431   -1.0756 C   0  0  0  0  0  4           0  0  0
   -0.7544    1.0268   -2.2013 C   0  0  0  0  0  4           0  0  0
   -0.8989    2.3800   -0.2134 C   0  0  0  0  0  4           0  0  0
    3.6357    0.6310    1.0279 C   0  0  0  0  0  4           0  0  0
    3.6360   -0.5161   -1.0894 C   0  0  0  0  0  4           0  0  0
   -1.2624    2.0849   -2.9593 C   0  0  0  0  0  4           0  0  0
   -1.4081    3.4372   -0.9724 C   0  0  0  0  0  4           0  0  0
    4.3339    0.0675   -0.0360 C   0  0  0  0  0  4           0  0  0
   -1.5936    3.2882   -2.3440 C   0  0  0  0  0  4           0  0  0
   -1.2752   -1.1233    1.6972 C   0  0  0  0  0  4           0  0  0
   -0.5842   -1.3646   -0.4481 C   0  0  0  0  0  4           0  0  0
    0.0000   -0.0000    0.0000 C   0  0  1  0  0  4           0  0  0
  1 17  2  0     0  0
  2 18  2  0     0  0
  3 17  1  0     0  0
  3 18  1  0     0  0
  4 17  1  0     0  0
  4 19  1  0     0  0
  5  7  2  0     0  0
  5  8  1  0     0  0
  5 19  1  0     0  0
  6  9  2  0     0  0
  6 10  1  0     0  0
  6 19  1  0     0  0
  7 11  1  0     0  0
  8 12  2  0     0  0
  9 13  1  0     0  0
 10 14  2  0     0  0
 11 15  2  0     0  0
 12 15  1  0     0  0
 13 16  2  0     0  0
 14 16  1  0     0  0
 18 19  1  0     0  0
M  END
> <standard_type>
pIC50

> <# Confs.>
12

> <canonical_smiles>
O=C1NC(C(C2=CC=CC=C2)(N1)C3=CC=CC=C3)=O

> <standard_relation>
=

> <Publication_ID>
nan

> <predicted_activity_value>
nan

> <actual_activity_value>
-2.380211241711606

> <Compound>
Phenytoin

> <standard_units>
uM

> hash
3478082585957382592

$$$$
41
XXILIB    08252103503D 0   0.00000     0.00000

 19 21  0     1  0            999 V2000
   -1.8141   -1.3471    2.7722 O   0  0  0  0  0  2           0  0  0
   -0.4414   -1.8703   -1.5552 O   0  0  0  0  0  2           0  0  0
   -1.2938   -1.9248    0.5855 N   0  0  0  0  0  3           0  0  0
   -0.5221   -0.0000    1.3700 N   0  0  0  0  0  3           0  0  0
    1.5135    0.0000   -0.0000 C   0  0  0  0  0  4           0  0  0
   -0.5788    1.1477   -0.8104 C   0  0  0  0  0  4           0  0  0
    2.2387    0.0000   -1.2052 C   0  0  0  0  0  4           0  0  0
    2.2390   -0.0674    1.2031 C   0  0  0  0  0  4           0  0  0
    0.0647    2.3986   -0.8437 C   0  0  0  0  0  4           0  0  0
   -1.7980    1.0186   -1.4992 C   0  0  0  0  0  4           0  0  0
    3.6357   -0.0325   -1.2057 C   0  0  0  0  0  4           0  0  0
    3.6360   -0.0977    1.2015 C   0  0  0  0  0  4           0  0  0
   -0.4723    3.4675   -1.5655 C   0  0  0  0  0  4           0  0  0
   -2.3335    2.0881   -2.2220 C   0  0  0  0  0  4           0  0  0
    4.3339   -0.0765   -0.0026 C   0  0  0  0  0  4           0  0  0
   -1.6689    3.3107   -2.2584 C   0  0  0  0  0  4           0  0  0
   -1.2752   -1.1233    1.6972 C   0  0  0  0  0  4           0  0  0
   -0.5842   -1.3646   -0.4481 C   0  0  0  0  0  4           0  0  0
    0.0000    0.0000    0.0000 C   0  0  1  0  0  4           0  0  0
  1 17  2  0     0  0
  2 18  2  0     0  0
  3 17  1  0     0  0
  3 18  1  0     0  0
  4 17  1  0     0  0
  4 19  1  0     0  0
  5  7  2  0     0  0
  5  8  1  0     0  0
  5 19  1  0     0  0
  6  9  2  0     0  0
  6 10  1  0     0  0
  6 19  1  0     0  0
  7 11  1  0     0  0
  8 12  2  0     0  0
  9 13  1  0     0  0
 10 14  2  0     0  0
 11 15  2  0     0  0
 12 15  1  0     0  0
 13 16  2  0     0  0
 14 16  1  0     0  0
 18 19  1  0     0  0
M  END
> <standard_type>
pIC50

> <# Confs.>
12

> <canonical_smiles>
O=C1NC(C(C2=CC=CC=C2)(N1)C3=CC=CC=C3)=O

> <standard_relation>
=

> <Publication_ID>
nan

> <predicted_activity_value>
nan

> <actual_activity_value>
-2.380211241711606

> <Compound>
Phenytoin

> <standard_units>
uM

> hash
3478082585957382592

$$$$
41
XXILIB    08252103503D 0   0.00000     0.00000

 19 21  0     1  0            999 V2000
   -1.7583    1.3546    2.8024 O   0  0  0  0  0  2           0  0  0
   -0.4956    1.8470   -1.5636 O   0  0  0  0  0  2           0  0  0
   -1.2845    1.9235    0.6023 N   0  0  0  0  0  3           0  0  0
   -0.4982   -0.0000    1.3778 N   0  0  0  0  0  3           0  0  0
    1.5135    0.0000   -0.0000 C   0  0  0  0  0  4           0  0  0
   -0.5826   -1.1396   -0.8189 C   0  0  0  0  0  4           0  0  0
    2.2387    0.6026   -1.0438 C   0  0  0  0  0  4           0  0  0
    2.2390   -0.6599    1.0082 C   0  0  0  0  0  4           0  0  0
   -1.9723   -1.2467   -1.0124 C   0  0  0  0  0  4           0  0  0
    0.2343   -2.1507   -1.3554 C   0  0  0  0  0  4           0  0  0
    3.6357    0.5747   -1.0604 C   0  0  0  0  0  4           0  0  0
    3.6360   -0.6854    0.9916 C   0  0  0  0  0  4           0  0  0
   -2.5199   -2.3045   -1.7427 C   0  0  0  0  0  4           0  0  0
   -0.3145   -3.2076   -2.0868 C   0  0  0  0  0  4           0  0  0
    4.3339   -0.0649   -0.0405 C   0  0  0  0  0  4           0  0  0
   -1.6905   -3.2822   -2.2838 C   0  0  0  0  0  4           0  0  0
   -1.2421    1.1263    1.7172 C   0  0  0  0  0  4           0  0  0
   -0.6033    1.3556   -0.4461 C   0  0  0  0  0  4           0  0  0
    0.0000    0.0000    0.0000 C   0  0  1  0  0  4           0  0  0
  1 17  2  0     0  0
  2 18  2  0     0  0
  3 17  1  0     0  0
  3 18  1  0     0  0
  4 17  1  0     0  0
  4 19  1  0     0  0
  5  7  2  0     0  0
  5  8  1  0     0  0
  5 19  1  0     0  0
  6  9  2  0     0  0
  6 10  1  0     0  0
  6 19  1  0     0  0
  7 11  1  0     0  0
  8 12  2  0     0  0
  9 13  1  0     0  0
 10 14  2  0     0  0
 11 15  2  0     0  0
 12 15  1  0     0  0
 13 16  2  0     0  0
 14 16  1  0     0  0
 18 19  1  0     0  0
M  END
> <standard_type>
pIC50

> <# Confs.>
12

> <canonical_smiles>
O=C1NC(C(C2=CC=CC=C2)(N1)C3=CC=CC=C3)=O

> <standard_relation>
=

> <Publication_ID>
nan

> <predicted_activity_value>
nan

> <actual_activity_value>
-2.380211241711606

> <Compound>
Phenytoin

> <standard_units>
uM

> hash
3478082585957382592

$$$$
41
XXILIB    08252103503D 0   0.00000     0.00000

 19 21  0     1  0            999 V2000
   -1.7583    1.3546    2.8024 O   0  0  0  0  0  2           0  0  0
   -0.4956    1.8470   -1.5636 O   0  0  0  0  0  2           0  0  0
   -1.2845    1.9235    0.6023 N   0  0  0  0  0  3           0  0  0
   -0.4982    0.0000    1.3778 N   0  0  0  0  0  3           0  0  0
    1.5135   -0.0000   -0.0000 C   0  0  0  0  0  4           0  0  0
   -0.5826   -1.1396   -0.8189 C   0  0  0  0  0  4           0  0  0
    2.2387   -1.0438   -0.6026 C   0  0  0  0  0  4           0  0  0
    2.2390    1.0082    0.6599 C   0  0  0  0  0  4           0  0  0
   -0.9450   -2.3525   -0.2044 C   0  0  0  0  0  4           0  0  0
   -0.7216   -1.0443   -2.2150 C   0  0  0  0  0  4           0  0  0
    3.6357   -1.0604   -0.5747 C   0  0  0  0  0  4           0  0  0
    3.6360    0.9916    0.6854 C   0  0  0  0  0  4           0  0  0
   -1.4583   -3.4153   -0.9522 C   0  0  0  0  0  4           0  0  0
   -1.2362   -2.1076   -2.9618 C   0  0  0  0  0  4           0  0  0
    4.3339   -0.0405    0.0649 C   0  0  0  0  0  4           0  0  0
   -1.6082   -3.2910   -2.3301 C   0  0  0  0  0  4           0  0  0
   -1.2421    1.1263    1.7172 C   0  0  0  0  0  4           0  0  0
   -0.6033    1.3556   -0.4461 C   0  0  0  0  0  4           0  0  0
    0.0000    0.0000    0.0000 C   0  0  1  0  0  4           0  0  0
  1 17  2  0     0  0
  2 18  2  0     0  0
  3 17  1  0     0  0
  3 18  1  0     0  0
  4 17  1  0     0  0
  4 19  1  0     0  0
  5  7  2  0     0  0
  5  8  1  0     0  0
  5 19  1  0     0  0
  6  9  2  0     0  0
  6 10  1  0     0  0
  6 19  1  0     0  0
  7 11  1  0     0  0
  8 12  2  0     0  0
  9 13  1  0     0  0
 10 14  2  0     0  0
 11 15  2  0     0  0
 12 15  1  0     0  0
 13 16  2  0     0  0
 14 16  1  0     0  0
 18 19  1  0     0  0
M  END
> <standard_type>
pIC50

> <# Confs.>
12

> <canonical_smiles>
O=C1NC(C(C2=CC=CC=C2)(N1)C3=CC=CC=C3)=O

> <standard_relation>
=

> <Publication_ID>
nan

> <predicted_activity_value>
nan

> <actual_activity_value>
-2.380211241711606

> <Compound>
Phenytoin

> <standard_units>
uM

> hash
3478082585957382592

$$$$
41
XXILIB    08252103503D 0   0.00000     0.00000

 19 21  0     1  0            999 V2000
   -1.7583    1.3546    2.8024 O   0  0  0  0  0  2           0  0  0
   -0.4956    1.8470   -1.5636 O   0  0  0  0  0  2           0  0  0
   -1.2845    1.9235    0.6023 N   0  0  0  0  0  3           0  0  0
   -0.4982    0.0000    1.3778 N   0  0  0  0  0  3           0  0  0
    1.5135    0.0000    0.0000 C   0  0  0  0  0  4           0  0  0
   -0.5826   -1.1396   -0.8189 C   0  0  0  0  0  4           0  0  0
    2.2387    0.0000    1.2052 C   0  0  0  0  0  4           0  0  0
    2.2390    0.0674   -1.2031 C   0  0  0  0  0  4           0  0  0
   -0.9450   -2.3525   -0.2044 C   0  0  0  0  0  4           0  0  0
   -0.7216   -1.0443   -2.2150 C   0  0  0  0  0  4           0  0  0
    3.6357    0.0325    1.2057 C   0  0  0  0  0  4           0  0  0
    3.6360    0.0977   -1.2015 C   0  0  0  0  0  4           0  0  0
   -1.4583   -3.4153   -0.9522 C   0  0  0  0  0  4           0  0  0
   -1.2362   -2.1076   -2.9618 C   0  0  0  0  0  4           0  0  0
    4.3339    0.0765    0.0026 C   0  0  0  0  0  4           0  0  0
   -1.6082   -3.2910   -2.3301 C   0  0  0  0  0  4           0  0  0
   -1.2421    1.1263    1.7172 C   0  0  0  0  0  4           0  0  0
   -0.6033    1.3556   -0.4461 C   0  0  0  0  0  4           0  0  0
    0.0000    0.0000    0.0000 C   0  0  1  0  0  4           0  0  0
  1 17  2  0     0  0
  2 18  2  0     0  0
  3 17  1  0     0  0
  3 18  1  0     0  0
  4 17  1  0     0  0
  4 19  1  0     0  0
  5  7  2  0     0  0
  5  8  1  0     0  0
  5 19  1  0     0  0
  6  9  2  0     0  0
  6 10  1  0     0  0
  6 19  1  0     0  0
  7 11  1  0     0  0
  8 12  2  0     0  0
  9 13  1  0     0  0
 10 14  2  0     0  0
 11 15  2  0     0  0
 12 15  1  0     0  0
 13 16  2  0     0  0
 14 16  1  0     0  0
 18 19  1  0     0  0
M  END
> <standard_type>
pIC50

> <# Confs.>
12

> <canonical_smiles>
O=C1NC(C(C2=CC=CC=C2)(N1)C3=CC=CC=C3)=O

> <standard_relation>
=

> <Publication_ID>
nan

> <predicted_activity_value>
nan

> <actual_activity_value>
-2.380211241711606

> <Compound>
Phenytoin

> <standard_units>
uM

> hash
3478082585957382592

$$$$
41
XXILIB    08252103503D 0   0.00000     0.00000

 19 21  0     1  0            999 V2000
   -1.8141   -1.3471    2.7722 O   0  0  0  0  0  2           0  0  0
   -0.4414   -1.8703   -1.5552 O   0  0  0  0  0  2           0  0  0
   -1.2938   -1.9248    0.5855 N   0  0  0  0  0  3           0  0  0
   -0.5221    0.0000    1.3700 N   0  0  0  0  0  3           0  0  0
    1.5135    0.0000   -0.0000 C   0  0  0  0  0  4           0  0  0
   -0.5788    1.1477   -0.8104 C   0  0  0  0  0  4           0  0  0
    2.2387    0.6026   -1.0438 C   0  0  0  0  0  4           0  0  0
    2.2390   -0.6599    1.0082 C   0  0  0  0  0  4           0  0  0
   -0.7544    1.0268   -2.2013 C   0  0  0  0  0  4           0  0  0
   -0.8989    2.3800   -0.2134 C   0  0  0  0  0  4           0  0  0
    3.6357    0.5747   -1.0604 C   0  0  0  0  0  4           0  0  0
    3.6360   -0.6854    0.9916 C   0  0  0  0  0  4           0  0  0
   -1.2624    2.0849   -2.9593 C   0  0  0  0  0  4           0  0  0
   -1.4081    3.4372   -0.9724 C   0  0  0  0  0  4           0  0  0
    4.3339   -0.0649   -0.0405 C   0  0  0  0  0  4           0  0  0
   -1.5936    3.2882   -2.3440 C   0  0  0  0  0  4           0  0  0
   -1.2752   -1.1233    1.6972 C   0  0  0  0  0  4           0  0  0
   -0.5842   -1.3646   -0.4481 C   0  0  0  0  0  4           0  0  0
    0.0000   -0.0000    0.0000 C   0  0  1  0  0  4           0  0  0
  1 17  2  0     0  0
  2 18  2  0     0  0
  3 17  1  0     0  0
  3 18  1  0     0  0
  4 17  1  0     0  0
  4 19  1  0     0  0
  5  7  2  0     0  0
  5  8  1  0     0  0
  5 19  1  0     0  0
  6  9  2  0     0  0
  6 10  1  0     0  0
  6 19  1  0     0  0
  7 11  1  0     0  0
  8 12  2  0     0  0
  9 13  1  0     0  0
 10 14  2  0     0  0
 11 15  2  0     0  0
 12 15  1  0     0  0
 13 16  2  0     0  0
 14 16  1  0     0  0
 18 19  1  0     0  0
M  END
> <standard_type>
pIC50

> <# Confs.>
12

> <canonical_smiles>
O=C1NC(C(C2=CC=CC=C2)(N1)C3=CC=CC=C3)=O

> <standard_relation>
=

> <Publication_ID>
nan

> <predicted_activity_value>
nan

> <actual_activity_value>
-2.380211241711606

> <Compound>
Phenytoin

> <standard_units>
uM

> hash
3478082585957382592

$$$$
41
XXILIB    08252103503D 0   0.00000     0.00000

 19 21  0     1  0            999 V2000
   -1.8141   -1.3471    2.7722 O   0  0  0  0  0  2           0  0  0
   -0.4414   -1.8703   -1.5552 O   0  0  0  0  0  2           0  0  0
   -1.2938   -1.9248    0.5855 N   0  0  0  0  0  3           0  0  0
   -0.5221    0.0000    1.3700 N   0  0  0  0  0  3           0  0  0
    1.5135   -0.0000   -0.0000 C   0  0  0  0  0  4           0  0  0
   -0.5788    1.1477   -0.8104 C   0  0  0  0  0  4           0  0  0
    2.2387   -0.6026   -1.0438 C   0  0  0  0  0  4           0  0  0
    2.2390    0.5431    1.0756 C   0  0  0  0  0  4           0  0  0
   -1.8665    1.6432   -0.5342 C   0  0  0  0  0  4           0  0  0
    0.1214    1.7081   -1.8935 C   0  0  0  0  0  4           0  0  0
    3.6357   -0.6310   -1.0279 C   0  0  0  0  0  4           0  0  0
    3.6360    0.5161    1.0894 C   0  0  0  0  0  4           0  0  0
   -2.4176    2.6814   -1.2895 C   0  0  0  0  0  4           0  0  0
   -0.4304    2.7474   -2.6475 C   0  0  0  0  0  4           0  0  0
    4.3339   -0.0675    0.0360 C   0  0  0  0  0  4           0  0  0
   -1.6976    3.2365   -2.3430 C   0  0  0  0  0  4           0  0  0
   -1.2752   -1.1233    1.6972 C   0  0  0  0  0  4           0  0  0
   -0.5842   -1.3646   -0.4481 C   0  0  0  0  0  4           0  0  0
    0.0000    0.0000    0.0000 C   0  0  1  0  0  4           0  0  0
  1 17  2  0     0  0
  2 18  2  0     0  0
  3 17  1  0     0  0
  3 18  1  0     0  0
  4 17  1  0     0  0
  4 19  1  0     0  0
  5  7  2  0     0  0
  5  8  1  0     0  0
  5 19  1  0     0  0
  6  9  2  0     0  0
  6 10  1  0     0  0
  6 19  1  0     0  0
  7 11  1  0     0  0
  8 12  2  0     0  0
  9 13  1  0     0  0
 10 14  2  0     0  0
 11 15  2  0     0  0
 12 15  1  0     0  0
 13 16  2  0     0  0
 14 16  1  0     0  0
 18 19  1  0     0  0
M  END
> <standard_type>
pIC50

> <# Confs.>
12

> <canonical_smiles>
O=C1NC(C(C2=CC=CC=C2)(N1)C3=CC=CC=C3)=O

> <standard_relation>
=

> <Publication_ID>
nan

> <predicted_activity_value>
nan

> <actual_activity_value>
-2.380211241711606

> <Compound>
Phenytoin

> <standard_units>
uM

> hash
3478082585957382592

$$$$
41
XXILIB    08252103503D 0   0.00000     0.00000

 19 21  0     1  0            999 V2000
   -1.7583    1.3546    2.8024 O   0  0  0  0  0  2           0  0  0
   -0.4956    1.8470   -1.5636 O   0  0  0  0  0  2           0  0  0
   -1.2845    1.9235    0.6023 N   0  0  0  0  0  3           0  0  0
   -0.4982    0.0000    1.3778 N   0  0  0  0  0  3           0  0  0
    1.5135    0.0000    0.0000 C   0  0  0  0  0  4           0  0  0
   -0.5826   -1.1396   -0.8189 C   0  0  0  0  0  4           0  0  0
    2.2387    0.6026    1.0438 C   0  0  0  0  0  4           0  0  0
    2.2390   -0.5431   -1.0756 C   0  0  0  0  0  4           0  0  0
   -1.7793   -0.9670   -1.5388 C   0  0  0  0  0  4           0  0  0
    0.0158   -2.4120   -0.8364 C   0  0  0  0  0  4           0  0  0
    3.6357    0.6310    1.0279 C   0  0  0  0  0  4           0  0  0
    3.6360   -0.5161   -1.0894 C   0  0  0  0  0  4           0  0  0
   -2.3365   -2.0159   -2.2747 C   0  0  0  0  0  4           0  0  0
   -0.5417   -3.4600   -1.5739 C   0  0  0  0  0  4           0  0  0
    4.3339    0.0675   -0.0360 C   0  0  0  0  0  4           0  0  0
   -1.7151   -3.2608   -2.2959 C   0  0  0  0  0  4           0  0  0
   -1.2421    1.1263    1.7172 C   0  0  0  0  0  4           0  0  0
   -0.6033    1.3556   -0.4461 C   0  0  0  0  0  4           0  0  0
    0.0000    0.0000    0.0000 C   0  0  1  0  0  4           0  0  0
  1 17  2  0     0  0
  2 18  2  0     0  0
  3 17  1  0     0  0
  3 18  1  0     0  0
  4 17  1  0     0  0
  4 19  1  0     0  0
  5  7  2  0     0  0
  5  8  1  0     0  0
  5 19  1  0     0  0
  6  9  2  0     0  0
  6 10  1  0     0  0
  6 19  1  0     0  0
  7 11  1  0     0  0
  8 12  2  0     0  0
  9 13  1  0     0  0
 10 14  2  0     0  0
 11 15  2  0     0  0
 12 15  1  0     0  0
 13 16  2  0     0  0
 14 16  1  0     0  0
 18 19  1  0     0  0
M  END
> <standard_type>
pIC50

> <# Confs.>
12

> <canonical_smiles>
O=C1NC(C(C2=CC=CC=C2)(N1)C3=CC=CC=C3)=O

> <standard_relation>
=

> <Publication_ID>
nan

> <predicted_activity_value>
nan

> <actual_activity_value>
-2.380211241711606

> <Compound>
Phenytoin

> <standard_units>
uM

> hash
3478082585957382592

$$$$
41
XXILIB    08252103503D 0   0.00000     0.00000

 19 21  0     1  0            999 V2000
   -1.7583    1.3546    2.8024 O   0  0  0  0  0  2           0  0  0
   -0.4956    1.8470   -1.5636 O   0  0  0  0  0  2           0  0  0
   -1.2845    1.9235    0.6023 N   0  0  0  0  0  3           0  0  0
   -0.4982    0.0000    1.3778 N   0  0  0  0  0  3           0  0  0
    1.5135   -0.0000    0.0000 C   0  0  0  0  0  4           0  0  0
   -0.5826   -1.1396   -0.8189 C   0  0  0  0  0  4           0  0  0
    2.2387   -1.0438    0.6026 C   0  0  0  0  0  4           0  0  0
    2.2390    1.0756   -0.5431 C   0  0  0  0  0  4           0  0  0
   -0.3760   -2.4775   -0.4352 C   0  0  0  0  0  4           0  0  0
   -1.2899   -0.9007   -2.0107 C   0  0  0  0  0  4           0  0  0
    3.6357   -1.0279    0.6310 C   0  0  0  0  0  4           0  0  0
    3.6360    1.0894   -0.5161 C   0  0  0  0  0  4           0  0  0
   -0.8863   -3.5333   -1.1950 C   0  0  0  0  0  4           0  0  0
   -1.8009   -1.9574   -2.7691 C   0  0  0  0  0  4           0  0  0
    4.3339    0.0360    0.0675 C   0  0  0  0  0  4           0  0  0
   -1.6026   -3.2729   -2.3592 C   0  0  0  0  0  4           0  0  0
   -1.2421    1.1263    1.7172 C   0  0  0  0  0  4           0  0  0
   -0.6033    1.3556   -0.4461 C   0  0  0  0  0  4           0  0  0
    0.0000    0.0000    0.0000 C   0  0  1  0  0  4           0  0  0
  1 17  2  0     0  0
  2 18  2  0     0  0
  3 17  1  0     0  0
  3 18  1  0     0  0
  4 17  1  0     0  0
  4 19  1  0     0  0
  5  7  2  0     0  0
  5  8  1  0     0  0
  5 19  1  0     0  0
  6  9  2  0     0  0
  6 10  1  0     0  0
  6 19  1  0     0  0
  7 11  1  0     0  0
  8 12  2  0     0  0
  9 13  1  0     0  0
 10 14  2  0     0  0
 11 15  2  0     0  0
 12 15  1  0     0  0
 13 16  2  0     0  0
 14 16  1  0     0  0
 18 19  1  0     0  0
M  END
> <standard_type>
pIC50

> <# Confs.>
12

> <canonical_smiles>
O=C1NC(C(C2=CC=CC=C2)(N1)C3=CC=CC=C3)=O

> <standard_relation>
=

> <Publication_ID>
nan

> <predicted_activity_value>
nan

> <actual_activity_value>
-2.380211241711606

> <Compound>
Phenytoin

> <standard_units>
uM

> hash
3478082585957382592

$$$$
41
XXILIB    08252103503D 0   0.00000     0.00000

 19 21  0     1  0            999 V2000
   -1.8141   -1.3471    2.7722 O   0  0  0  0  0  2           0  0  0
   -0.4414   -1.8703   -1.5552 O   0  0  0  0  0  2           0  0  0
   -1.2938   -1.9248    0.5855 N   0  0  0  0  0  3           0  0  0
   -0.5221   -0.0000    1.3700 N   0  0  0  0  0  3           0  0  0
    1.5135   -0.0000   -0.0000 C   0  0  0  0  0  4           0  0  0
   -0.5788    1.1477   -0.8104 C   0  0  0  0  0  4           0  0  0
    2.2387   -1.0438   -0.6026 C   0  0  0  0  0  4           0  0  0
    2.2390    1.0082    0.6599 C   0  0  0  0  0  4           0  0  0
    0.0647    2.3986   -0.8437 C   0  0  0  0  0  4           0  0  0
   -1.7980    1.0186   -1.4992 C   0  0  0  0  0  4           0  0  0
    3.6357   -1.0604   -0.5747 C   0  0  0  0  0  4           0  0  0
    3.6360    0.9916    0.6854 C   0  0  0  0  0  4           0  0  0
   -0.4723    3.4675   -1.5655 C   0  0  0  0  0  4           0  0  0
   -2.3335    2.0881   -2.2220 C   0  0  0  0  0  4           0  0  0
    4.3339   -0.0405    0.0649 C   0  0  0  0  0  4           0  0  0
   -1.6689    3.3107   -2.2584 C   0  0  0  0  0  4           0  0  0
   -1.2752   -1.1233    1.6972 C   0  0  0  0  0  4           0  0  0
   -0.5842   -1.3646   -0.4481 C   0  0  0  0  0  4           0  0  0
    0.0000    0.0000    0.0000 C   0  0  1  0  0  4           0  0  0
  1 17  2  0     0  0
  2 18  2  0     0  0
  3 17  1  0     0  0
  3 18  1  0     0  0
  4 17  1  0     0  0
  4 19  1  0     0  0
  5  7  2  0     0  0
  5  8  1  0     0  0
  5 19  1  0     0  0
  6  9  2  0     0  0
  6 10  1  0     0  0
  6 19  1  0     0  0
  7 11  1  0     0  0
  8 12  2  0     0  0
  9 13  1  0     0  0
 10 14  2  0     0  0
 11 15  2  0     0  0
 12 15  1  0     0  0
 13 16  2  0     0  0
 14 16  1  0     0  0
 18 19  1  0     0  0
M  END
> <standard_type>
pIC50

> <# Confs.>
12

> <canonical_smiles>
O=C1NC(C(C2=CC=CC=C2)(N1)C3=CC=CC=C3)=O

> <standard_relation>
=

> <Publication_ID>
nan

> <predicted_activity_value>
nan

> <actual_activity_value>
-2.380211241711606

> <Compound>
Phenytoin

> <standard_units>
uM

> hash
3478082585957382592

$$$$
20
XXILIB    08252103503D 0   0.00000     0.00000

 28 29  0     1  0            999 V2000
    1.8443   -0.9857    4.1670 F   0  0  0  0  0  1           0  0  0
    0.1960    0.0649    5.1437 F   0  0  0  0  0  1           0  0  0
    0.2948   -2.1129    5.2083 F   0  0  0  0  0  1           0  0  0
   -4.1235   -0.4780   -4.8190 F   0  0  0  0  0  1           0  0  0
   -3.1273   -2.2857   -4.1017 F   0  0  0  0  0  1           0  0  0
   -5.2814   -2.0529   -3.8522 F   0  0  0  0  0  1           0  0  0
   -0.0026    0.0436    2.3741 O   0  0  0  0  0  2           0  0  0
   -2.6355   -0.0592   -2.5198 O   0  0  0  0  0  2           0  0  0
    2.0860   -0.5350   -0.9267 O   0  0  0  0  0  2           0  0  0
    2.0873    0.6161    1.0729 N   0  0  0  0  0  3           0  0  0
    3.4991    3.1258    1.2132 N   0  0  0  0  0  3           0  0  0
   -0.7226   -0.0000    1.2074 C   0  0  0  0  0  4           0  0  0
   -2.0852   -0.0378   -1.2635 C   0  0  0  0  0  4           0  0  0
    0.0000    0.0000    0.0000 C   0  0  0  0  0  4           0  0  0
   -0.6869   -0.0217   -1.2255 C   0  0  0  0  0  4           0  0  0
   -2.1230   -0.0136    1.1585 C   0  0  0  0  0  4           0  0  0
   -2.7997   -0.0320   -0.0661 C   0  0  0  0  0  4           0  0  0
    0.5212   -1.0329    4.4292 C   0  0  2  0  0  4           0  0  0
   -4.1025   -1.3939   -3.8279 C   0  0  2  0  0  4           0  0  0
    1.4819   -0.0000   -0.0000 C   0  0  0  0  0  4           0  0  0
   -0.2849   -1.1163    3.1607 C   0  0  0  0  0  4           0  0  0
   -3.8864   -0.7440   -2.4874 C   0  0  0  0  0  4           0  0  0
    4.1003    1.9506    0.5652 C   0  0  2  0  0  4           0  0  0
    3.5259    0.6939    1.2146 C   0  0  0  0  0  4           0  0  0
    3.9772    4.3756    0.6220 C   0  0  0  0  0  4           0  0  0
    5.6330    1.9991    0.6895 C   0  0  0  0  0  4           0  0  0
    5.4932    4.5037    0.7369 C   0  0  0  0  0  4           0  0  0
    6.1960    3.2996    0.1210 C   0  0  0  0  0  4           0  0  0
  1 18  1  0     0  0
  2 18  1  0     0  0
  3 18  1  0     0  0
  4 19  1  0     0  0
  5 19  1  0     0  0
  6 19  1  0     0  0
  7 12  1  0     0  0
  7 21  1  0     0  0
  8 13  1  0     0  0
  8 22  1  0     0  0
  9 20  2  0     0  0
 10 20  1  0     0  0
 10 24  1  0     0  0
 11 23  1  0     0  0
 11 25  1  0     0  0
 12 14  1  0     0  0
 12 16  2  0     0  0
 13 15  1  0     0  0
 13 17  2  0     0  0
 14 15  2  0     0  0
 14 20  1  0     0  0
 16 17  1  0     0  0
 18 21  1  0     0  0
 19 22  1  0     0  0
 23 24  1  0     0  0
 23 26  1  0     0  0
 25 27  1  0     0  0
 26 28  1  0     0  0
 27 28  1  0     0  0
M  END
> <standard_type>
pIC50

> <# Confs.>
25

> <canonical_smiles>
O=C(NCC1CCCCN1)C2=CC(OCC(F)(F)F)=CC=C2OCC(F)(F)F

> <standard_relation>
=

> <Publication_ID>
nan

> <predicted_activity_value>
nan

> <actual_activity_value>
-0.5921767573958668

> <Compound>
Flecainide

> <standard_units>
uM

> hash
699213466552616326

$$$$
20
XXILIB    08252103503D 0   0.00000     0.00000

 28 29  0     1  0            999 V2000
    1.8443   -0.9857    4.1670 F   0  0  0  0  0  1           0  0  0
    0.1960    0.0649    5.1437 F   0  0  0  0  0  1           0  0  0
    0.2948   -2.1129    5.2083 F   0  0  0  0  0  1           0  0  0
   -3.1697    2.1072   -4.1620 F   0  0  0  0  0  1           0  0  0
   -4.1449    0.2678   -4.8255 F   0  0  0  0  0  1           0  0  0
   -5.3191    1.8530   -3.8954 F   0  0  0  0  0  1           0  0  0
   -0.0026    0.0436    2.3741 O   0  0  0  0  0  2           0  0  0
   -2.6355   -0.0592   -2.5198 O   0  0  0  0  0  2           0  0  0
    2.0860   -0.5350   -0.9267 O   0  0  0  0  0  2           0  0  0
    2.0873    0.6161    1.0729 N   0  0  0  0  0  3           0  0  0
    3.4991    3.1258    1.2132 N   0  0  0  0  0  3           0  0  0
   -0.7226    0.0000    1.2074 C   0  0  0  0  0  4           0  0  0
   -2.0852   -0.0378   -1.2635 C   0  0  0  0  0  4           0  0  0
    0.0000    0.0000    0.0000 C   0  0  0  0  0  4           0  0  0
   -0.6869   -0.0217   -1.2255 C   0  0  0  0  0  4           0  0  0
   -2.1230   -0.0136    1.1585 C   0  0  0  0  0  4           0  0  0
   -2.7997   -0.0320   -0.0661 C   0  0  0  0  0  4           0  0  0
    0.5212   -1.0329    4.4292 C   0  0  2  0  0  4           0  0  0
   -4.1316    1.2101   -3.8595 C   0  0  2  0  0  4           0  0  0
    1.4819   -0.0000   -0.0000 C   0  0  0  0  0  4           0  0  0
   -0.2849   -1.1163    3.1607 C   0  0  0  0  0  4           0  0  0
   -3.9014    0.5979   -2.5037 C   0  0  0  0  0  4           0  0  0
    4.1003    1.9506    0.5652 C   0  0  2  0  0  4           0  0  0
    3.5259    0.6939    1.2146 C   0  0  0  0  0  4           0  0  0
    3.9772    4.3756    0.6220 C   0  0  0  0  0  4           0  0  0
    5.6330    1.9991    0.6895 C   0  0  0  0  0  4           0  0  0
    5.4932    4.5037    0.7369 C   0  0  0  0  0  4           0  0  0
    6.1960    3.2996    0.1210 C   0  0  0  0  0  4           0  0  0
  1 18  1  0     0  0
  2 18  1  0     0  0
  3 18  1  0     0  0
  4 19  1  0     0  0
  5 19  1  0     0  0
  6 19  1  0     0  0
  7 12  1  0     0  0
  7 21  1  0     0  0
  8 13  1  0     0  0
  8 22  1  0     0  0
  9 20  2  0     0  0
 10 20  1  0     0  0
 10 24  1  0     0  0
 11 23  1  0     0  0
 11 25  1  0     0  0
 12 14  1  0     0  0
 12 16  2  0     0  0
 13 15  1  0     0  0
 13 17  2  0     0  0
 14 15  2  0     0  0
 14 20  1  0     0  0
 16 17  1  0     0  0
 18 21  1  0     0  0
 19 22  1  0     0  0
 23 24  1  0     0  0
 23 26  1  0     0  0
 25 27  1  0     0  0
 26 28  1  0     0  0
 27 28  1  0     0  0
M  END
> <standard_type>
pIC50

> <# Confs.>
25

> <canonical_smiles>
O=C(NCC1CCCCN1)C2=CC(OCC(F)(F)F)=CC=C2OCC(F)(F)F

> <standard_relation>
=

> <Publication_ID>
nan

> <predicted_activity_value>
nan

> <actual_activity_value>
-0.5921767573958668

> <Compound>
Flecainide

> <standard_units>
uM

> hash
699213466552616326

$$$$
20
XXILIB    08252103503D 0   0.00000     0.00000

 28 29  0     1  0            999 V2000
    1.8443   -0.9857    4.1670 F   0  0  0  0  0  1           0  0  0
    0.1960    0.0649    5.1437 F   0  0  0  0  0  1           0  0  0
    0.2948   -2.1129    5.2083 F   0  0  0  0  0  1           0  0  0
   -3.1697    2.1072   -4.1620 F   0  0  0  0  0  1           0  0  0
   -4.1449    0.2678   -4.8255 F   0  0  0  0  0  1           0  0  0
   -5.3191    1.8530   -3.8954 F   0  0  0  0  0  1           0  0  0
   -0.0026    0.0436    2.3741 O   0  0  0  0  0  2           0  0  0
   -2.6355   -0.0592   -2.5198 O   0  0  0  0  0  2           0  0  0
    2.0860   -0.5350   -0.9267 O   0  0  0  0  0  2           0  0  0
    2.0873    0.6161    1.0729 N   0  0  0  0  0  3           0  0  0
    3.3595    1.9143    3.3139 N   0  0  0  0  0  3           0  0  0
   -0.7226    0.0000    1.2074 C   0  0  0  0  0  4           0  0  0
   -2.0852   -0.0378   -1.2635 C   0  0  0  0  0  4           0  0  0
    0.0000    0.0000    0.0000 C   0  0  0  0  0  4           0  0  0
   -0.6869   -0.0217   -1.2255 C   0  0  0  0  0  4           0  0  0
   -2.1230   -0.0136    1.1585 C   0  0  0  0  0  4           0  0  0
   -2.7997   -0.0320   -0.0661 C   0  0  0  0  0  4           0  0  0
    0.5212   -1.0329    4.4292 C   0  0  2  0  0  4           0  0  0
   -4.1316    1.2101   -3.8595 C   0  0  2  0  0  4           0  0  0
    1.4819   -0.0000   -0.0000 C   0  0  0  0  0  4           0  0  0
   -0.2849   -1.1163    3.1607 C   0  0  0  0  0  4           0  0  0
   -3.9014    0.5979   -2.5037 C   0  0  0  0  0  4           0  0  0
    3.9620    1.9452    1.9727 C   0  0  2  0  0  4           0  0  0
    3.5259    0.6939    1.2146 C   0  0  0  0  0  4           0  0  0
    3.7650    3.0684    4.1165 C   0  0  0  0  0  4           0  0  0
    3.5433    3.2275    1.2331 C   0  0  0  0  0  4           0  0  0
    3.3585    4.3817    3.4531 C   0  0  0  0  0  4           0  0  0
    3.9082    4.4750    2.0342 C   0  0  0  0  0  4           0  0  0
  1 18  1  0     0  0
  2 18  1  0     0  0
  3 18  1  0     0  0
  4 19  1  0     0  0
  5 19  1  0     0  0
  6 19  1  0     0  0
  7 12  1  0     0  0
  7 21  1  0     0  0
  8 13  1  0     0  0
  8 22  1  0     0  0
  9 20  2  0     0  0
 10 20  1  0     0  0
 10 24  1  0     0  0
 11 23  1  0     0  0
 11 25  1  0     0  0
 12 14  1  0     0  0
 12 16  2  0     0  0
 13 15  1  0     0  0
 13 17  2  0     0  0
 14 15  2  0     0  0
 14 20  1  0     0  0
 16 17  1  0     0  0
 18 21  1  0     0  0
 19 22  1  0     0  0
 23 24  1  0     0  0
 23 26  1  0     0  0
 25 27  1  0     0  0
 26 28  1  0     0  0
 27 28  1  0     0  0
M  END
> <standard_type>
pIC50

> <# Confs.>
25

> <canonical_smiles>
O=C(NCC1CCCCN1)C2=CC(OCC(F)(F)F)=CC=C2OCC(F)(F)F

> <standard_relation>
=

> <Publication_ID>
nan

> <predicted_activity_value>
nan

> <actual_activity_value>
-0.5921767573958668

> <Compound>
Flecainide

> <standard_units>
uM

> hash
699213466552616326

$$$$
20
XXILIB    08252103503D 0   0.00000     0.00000

 28 29  0     1  0            999 V2000
    1.8443   -0.9857    4.1670 F   0  0  0  0  0  1           0  0  0
    0.1960    0.0649    5.1437 F   0  0  0  0  0  1           0  0  0
    0.2948   -2.1129    5.2083 F   0  0  0  0  0  1           0  0  0
   -4.1235   -0.4780   -4.8190 F   0  0  0  0  0  1           0  0  0
   -3.1273   -2.2857   -4.1017 F   0  0  0  0  0  1           0  0  0
   -5.2814   -2.0529   -3.8522 F   0  0  0  0  0  1           0  0  0
   -0.0026    0.0436    2.3741 O   0  0  0  0  0  2           0  0  0
   -2.6355   -0.0592   -2.5198 O   0  0  0  0  0  2           0  0  0
    2.0860   -0.5350   -0.9267 O   0  0  0  0  0  2           0  0  0
    2.0873    0.6161    1.0729 N   0  0  0  0  0  3           0  0  0
    3.3595    1.9143    3.3139 N   0  0  0  0  0  3           0  0  0
   -0.7226   -0.0000    1.2074 C   0  0  0  0  0  4           0  0  0
   -2.0852   -0.0378   -1.2635 C   0  0  0  0  0  4           0  0  0
    0.0000    0.0000    0.0000 C   0  0  0  0  0  4           0  0  0
   -0.6869   -0.0217   -1.2255 C   0  0  0  0  0  4           0  0  0
   -2.1230   -0.0136    1.1585 C   0  0  0  0  0  4           0  0  0
   -2.7997   -0.0320   -0.0661 C   0  0  0  0  0  4           0  0  0
    0.5212   -1.0329    4.4292 C   0  0  2  0  0  4           0  0  0
   -4.1025   -1.3939   -3.8279 C   0  0  2  0  0  4           0  0  0
    1.4819   -0.0000   -0.0000 C   0  0  0  0  0  4           0  0  0
   -0.2849   -1.1163    3.1607 C   0  0  0  0  0  4           0  0  0
   -3.8864   -0.7440   -2.4874 C   0  0  0  0  0  4           0  0  0
    3.9620    1.9452    1.9727 C   0  0  2  0  0  4           0  0  0
    3.5259    0.6939    1.2146 C   0  0  0  0  0  4           0  0  0
    3.7650    3.0684    4.1165 C   0  0  0  0  0  4           0  0  0
    3.5433    3.2275    1.2331 C   0  0  0  0  0  4           0  0  0
    3.3585    4.3817    3.4531 C   0  0  0  0  0  4           0  0  0
    3.9082    4.4750    2.0342 C   0  0  0  0  0  4           0  0  0
  1 18  1  0     0  0
  2 18  1  0     0  0
  3 18  1  0     0  0
  4 19  1  0     0  0
  5 19  1  0     0  0
  6 19  1  0     0  0
  7 12  1  0     0  0
  7 21  1  0     0  0
  8 13  1  0     0  0
  8 22  1  0     0  0
  9 20  2  0     0  0
 10 20  1  0     0  0
 10 24  1  0     0  0
 11 23  1  0     0  0
 11 25  1  0     0  0
 12 14  1  0     0  0
 12 16  2  0     0  0
 13 15  1  0     0  0
 13 17  2  0     0  0
 14 15  2  0     0  0
 14 20  1  0     0  0
 16 17  1  0     0  0
 18 21  1  0     0  0
 19 22  1  0     0  0
 23 24  1  0     0  0
 23 26  1  0     0  0
 25 27  1  0     0  0
 26 28  1  0     0  0
 27 28  1  0     0  0
M  END
> <standard_type>
pIC50

> <# Confs.>
25

> <canonical_smiles>
O=C(NCC1CCCCN1)C2=CC(OCC(F)(F)F)=CC=C2OCC(F)(F)F

> <standard_relation>
=

> <Publication_ID>
nan

> <predicted_activity_value>
nan

> <actual_activity_value>
-0.5921767573958668

> <Compound>
Flecainide

> <standard_units>
uM

> hash
699213466552616326

$$$$
20
XXILIB    08252103503D 0   0.00000     0.00000

 28 29  0     1  0            999 V2000
    0.2045    0.1302    5.1372 F   0  0  0  0  0  1           0  0  0
    1.7749    1.2631    4.1246 F   0  0  0  0  0  1           0  0  0
    0.1491    2.3103    5.1329 F   0  0  0  0  0  1           0  0  0
   -4.1235   -0.4780   -4.8190 F   0  0  0  0  0  1           0  0  0
   -3.1273   -2.2857   -4.1017 F   0  0  0  0  0  1           0  0  0
   -5.2814   -2.0529   -3.8522 F   0  0  0  0  0  1           0  0  0
   -0.0026    0.0436    2.3741 O   0  0  0  0  0  2           0  0  0
   -2.6355   -0.0592   -2.5198 O   0  0  0  0  0  2           0  0  0
    2.0860    0.5350   -0.9267 O   0  0  0  0  0  2           0  0  0
    2.0873   -0.6211    1.0700 N   0  0  0  0  0  3           0  0  0
    3.4914   -3.1386    1.1990 N   0  0  0  0  0  3           0  0  0
   -0.7226   -0.0000    1.2074 C   0  0  0  0  0  4           0  0  0
   -2.0852   -0.0378   -1.2635 C   0  0  0  0  0  4           0  0  0
    0.0000    0.0000    0.0000 C   0  0  0  0  0  4           0  0  0
   -0.6869   -0.0217   -1.2255 C   0  0  0  0  0  4           0  0  0
   -2.1230   -0.0136    1.1585 C   0  0  0  0  0  4           0  0  0
   -2.7997   -0.0320   -0.0661 C   0  0  0  0  0  4           0  0  0
    0.4518    1.2251    4.3877 C   0  0  2  0  0  4           0  0  0
   -4.1025   -1.3939   -3.8279 C   0  0  2  0  0  4           0  0  0
    1.4819    0.0000   -0.0000 C   0  0  0  0  0  4           0  0  0
   -0.3565    1.2121    3.1178 C   0  0  0  0  0  4           0  0  0
   -3.8864   -0.7440   -2.4874 C   0  0  0  0  0  4           0  0  0
    4.0940   -1.9621    0.5544 C   0  0  2  0  0  4           0  0  0
    3.5259   -0.7049    1.2082 C   0  0  0  0  0  4           0  0  0
    3.9613   -4.3862    0.5966 C   0  0  0  0  0  4           0  0  0
    5.6265   -2.0179    0.6764 C   0  0  0  0  0  4           0  0  0
    5.4780   -4.5222    0.7030 C   0  0  0  0  0  4           0  0  0
    6.1830   -3.3152    0.0947 C   0  0  0  0  0  4           0  0  0
  1 18  1  0     0  0
  2 18  1  0     0  0
  3 18  1  0     0  0
  4 19  1  0     0  0
  5 19  1  0     0  0
  6 19  1  0     0  0
  7 12  1  0     0  0
  7 21  1  0     0  0
  8 13  1  0     0  0
  8 22  1  0     0  0
  9 20  2  0     0  0
 10 20  1  0     0  0
 10 24  1  0     0  0
 11 23  1  0     0  0
 11 25  1  0     0  0
 12 14  1  0     0  0
 12 16  2  0     0  0
 13 15  1  0     0  0
 13 17  2  0     0  0
 14 15  2  0     0  0
 14 20  1  0     0  0
 16 17  1  0     0  0
 18 21  1  0     0  0
 19 22  1  0     0  0
 23 24  1  0     0  0
 23 26  1  0     0  0
 25 27  1  0     0  0
 26 28  1  0     0  0
 27 28  1  0     0  0
M  END
> <standard_type>
pIC50

> <# Confs.>
25

> <canonical_smiles>
O=C(NCC1CCCCN1)C2=CC(OCC(F)(F)F)=CC=C2OCC(F)(F)F

> <standard_relation>
=

> <Publication_ID>
nan

> <predicted_activity_value>
nan

> <actual_activity_value>
-0.5921767573958668

> <Compound>
Flecainide

> <standard_units>
uM

> hash
699213466552616326

$$$$
20
XXILIB    08252103503D 0   0.00000     0.00000

 28 29  0     1  0            999 V2000
    0.2045    0.1302    5.1372 F   0  0  0  0  0  1           0  0  0
    1.7749    1.2631    4.1246 F   0  0  0  0  0  1           0  0  0
    0.1491    2.3103    5.1329 F   0  0  0  0  0  1           0  0  0
   -3.1697    2.1072   -4.1620 F   0  0  0  0  0  1           0  0  0
   -4.1449    0.2678   -4.8255 F   0  0  0  0  0  1           0  0  0
   -5.3191    1.8530   -3.8954 F   0  0  0  0  0  1           0  0  0
   -0.0026    0.0436    2.3741 O   0  0  0  0  0  2           0  0  0
   -2.6355   -0.0592   -2.5198 O   0  0  0  0  0  2           0  0  0
    2.0860    0.5350   -0.9267 O   0  0  0  0  0  2           0  0  0
    2.0873   -0.6211    1.0700 N   0  0  0  0  0  3           0  0  0
    3.4914   -3.1386    1.1990 N   0  0  0  0  0  3           0  0  0
   -0.7226    0.0000    1.2074 C   0  0  0  0  0  4           0  0  0
   -2.0852   -0.0378   -1.2635 C   0  0  0  0  0  4           0  0  0
    0.0000    0.0000    0.0000 C   0  0  0  0  0  4           0  0  0
   -0.6869   -0.0217   -1.2255 C   0  0  0  0  0  4           0  0  0
   -2.1230   -0.0136    1.1585 C   0  0  0  0  0  4           0  0  0
   -2.7997   -0.0320   -0.0661 C   0  0  0  0  0  4           0  0  0
    0.4518    1.2251    4.3877 C   0  0  2  0  0  4           0  0  0
   -4.1316    1.2101   -3.8595 C   0  0  2  0  0  4           0  0  0
    1.4819    0.0000   -0.0000 C   0  0  0  0  0  4           0  0  0
   -0.3565    1.2121    3.1178 C   0  0  0  0  0  4           0  0  0
   -3.9014    0.5979   -2.5037 C   0  0  0  0  0  4           0  0  0
    4.0940   -1.9621    0.5544 C   0  0  2  0  0  4           0  0  0
    3.5259   -0.7049    1.2082 C   0  0  0  0  0  4           0  0  0
    3.9613   -4.3862    0.5966 C   0  0  0  0  0  4           0  0  0
    5.6265   -2.0179    0.6764 C   0  0  0  0  0  4           0  0  0
    5.4780   -4.5222    0.7030 C   0  0  0  0  0  4           0  0  0
    6.1830   -3.3152    0.0947 C   0  0  0  0  0  4           0  0  0
  1 18  1  0     0  0
  2 18  1  0     0  0
  3 18  1  0     0  0
  4 19  1  0     0  0
  5 19  1  0     0  0
  6 19  1  0     0  0
  7 12  1  0     0  0
  7 21  1  0     0  0
  8 13  1  0     0  0
  8 22  1  0     0  0
  9 20  2  0     0  0
 10 20  1  0     0  0
 10 24  1  0     0  0
 11 23  1  0     0  0
 11 25  1  0     0  0
 12 14  1  0     0  0
 12 16  2  0     0  0
 13 15  1  0     0  0
 13 17  2  0     0  0
 14 15  2  0     0  0
 14 20  1  0     0  0
 16 17  1  0     0  0
 18 21  1  0     0  0
 19 22  1  0     0  0
 23 24  1  0     0  0
 23 26  1  0     0  0
 25 27  1  0     0  0
 26 28  1  0     0  0
 27 28  1  0     0  0
M  END
> <standard_type>
pIC50

> <# Confs.>
25

> <canonical_smiles>
O=C(NCC1CCCCN1)C2=CC(OCC(F)(F)F)=CC=C2OCC(F)(F)F

> <standard_relation>
=

> <Publication_ID>
nan

> <predicted_activity_value>
nan

> <actual_activity_value>
-0.5921767573958668

> <Compound>
Flecainide

> <standard_units>
uM

> hash
699213466552616326

$$$$
20
XXILIB    08252103503D 0   0.00000     0.00000

 28 29  0     1  0            999 V2000
    0.2045    0.1302    5.1372 F   0  0  0  0  0  1           0  0  0
    1.7749    1.2631    4.1246 F   0  0  0  0  0  1           0  0  0
    0.1491    2.3103    5.1329 F   0  0  0  0  0  1           0  0  0
   -4.1235   -0.4780   -4.8190 F   0  0  0  0  0  1           0  0  0
   -3.1273   -2.2857   -4.1017 F   0  0  0  0  0  1           0  0  0
   -5.2814   -2.0529   -3.8522 F   0  0  0  0  0  1           0  0  0
   -0.0026    0.0436    2.3741 O   0  0  0  0  0  2           0  0  0
   -2.6355   -0.0592   -2.5198 O   0  0  0  0  0  2           0  0  0
    2.0860    0.5350   -0.9267 O   0  0  0  0  0  2           0  0  0
    2.0873   -0.6211    1.0700 N   0  0  0  0  0  3           0  0  0
    3.3581   -1.9271    3.3041 N   0  0  0  0  0  3           0  0  0
   -0.7226   -0.0000    1.2074 C   0  0  0  0  0  4           0  0  0
   -2.0852   -0.0378   -1.2635 C   0  0  0  0  0  4           0  0  0
    0.0000    0.0000    0.0000 C   0  0  0  0  0  4           0  0  0
   -0.6869   -0.0217   -1.2255 C   0  0  0  0  0  4           0  0  0
   -2.1230   -0.0136    1.1585 C   0  0  0  0  0  4           0  0  0
   -2.7997   -0.0320   -0.0661 C   0  0  0  0  0  4           0  0  0
    0.4518    1.2251    4.3877 C   0  0  2  0  0  4           0  0  0
   -4.1025   -1.3939   -3.8279 C   0  0  2  0  0  4           0  0  0
    1.4819    0.0000   -0.0000 C   0  0  0  0  0  4           0  0  0
   -0.3565    1.2121    3.1178 C   0  0  0  0  0  4           0  0  0
   -3.8864   -0.7440   -2.4874 C   0  0  0  0  0  4           0  0  0
    3.9589   -1.9598    1.9623 C   0  0  2  0  0  4           0  0  0
    3.5259   -0.7049    1.2082 C   0  0  0  0  0  4           0  0  0
    3.7535   -3.0862    4.1042 C   0  0  0  0  0  4           0  0  0
    3.5347   -3.2385    1.2193 C   0  0  0  0  0  4           0  0  0
    3.3361   -4.3937    3.4376 C   0  0  0  0  0  4           0  0  0
    3.8877   -4.4897    2.0200 C   0  0  0  0  0  4           0  0  0
  1 18  1  0     0  0
  2 18  1  0     0  0
  3 18  1  0     0  0
  4 19  1  0     0  0
  5 19  1  0     0  0
  6 19  1  0     0  0
  7 12  1  0     0  0
  7 21  1  0     0  0
  8 13  1  0     0  0
  8 22  1  0     0  0
  9 20  2  0     0  0
 10 20  1  0     0  0
 10 24  1  0     0  0
 11 23  1  0     0  0
 11 25  1  0     0  0
 12 14  1  0     0  0
 12 16  2  0     0  0
 13 15  1  0     0  0
 13 17  2  0     0  0
 14 15  2  0     0  0
 14 20  1  0     0  0
 16 17  1  0     0  0
 18 21  1  0     0  0
 19 22  1  0     0  0
 23 24  1  0     0  0
 23 26  1  0     0  0
 25 27  1  0     0  0
 26 28  1  0     0  0
 27 28  1  0     0  0
M  END
> <standard_type>
pIC50

> <# Confs.>
25

> <canonical_smiles>
O=C(NCC1CCCCN1)C2=CC(OCC(F)(F)F)=CC=C2OCC(F)(F)F

> <standard_relation>
=

> <Publication_ID>
nan

> <predicted_activity_value>
nan

> <actual_activity_value>
-0.5921767573958668

> <Compound>
Flecainide

> <standard_units>
uM

> hash
699213466552616326

$$$$
20
XXILIB    08252103503D 0   0.00000     0.00000

 28 29  0     1  0            999 V2000
    0.2045    0.1302    5.1372 F   0  0  0  0  0  1           0  0  0
    1.7749    1.2631    4.1246 F   0  0  0  0  0  1           0  0  0
    0.1491    2.3103    5.1329 F   0  0  0  0  0  1           0  0  0
   -3.1697    2.1072   -4.1620 F   0  0  0  0  0  1           0  0  0
   -4.1449    0.2678   -4.8255 F   0  0  0  0  0  1           0  0  0
   -5.3191    1.8530   -3.8954 F   0  0  0  0  0  1           0  0  0
   -0.0026    0.0436    2.3741 O   0  0  0  0  0  2           0  0  0
   -2.6355   -0.0592   -2.5198 O   0  0  0  0  0  2           0  0  0
    2.0860    0.5350   -0.9267 O   0  0  0  0  0  2           0  0  0
    2.0873   -0.6211    1.0700 N   0  0  0  0  0  3           0  0  0
    3.3581   -1.9271    3.3041 N   0  0  0  0  0  3           0  0  0
   -0.7226    0.0000    1.2074 C   0  0  0  0  0  4           0  0  0
   -2.0852   -0.0378   -1.2635 C   0  0  0  0  0  4           0  0  0
    0.0000    0.0000    0.0000 C   0  0  0  0  0  4           0  0  0
   -0.6869   -0.0217   -1.2255 C   0  0  0  0  0  4           0  0  0
   -2.1230   -0.0136    1.1585 C   0  0  0  0  0  4           0  0  0
   -2.7997   -0.0320   -0.0661 C   0  0  0  0  0  4           0  0  0
    0.4518    1.2251    4.3877 C   0  0  2  0  0  4           0  0  0
   -4.1316    1.2101   -3.8595 C   0  0  2  0  0  4           0  0  0
    1.4819    0.0000   -0.0000 C   0  0  0  0  0  4           0  0  0
   -0.3565    1.2121    3.1178 C   0  0  0  0  0  4           0  0  0
   -3.9014    0.5979   -2.5037 C   0  0  0  0  0  4           0  0  0
    3.9589   -1.9598    1.9623 C   0  0  2  0  0  4           0  0  0
    3.5259   -0.7049    1.2082 C   0  0  0  0  0  4           0  0  0
    3.7535   -3.0862    4.1042 C   0  0  0  0  0  4           0  0  0
    3.5347   -3.2385    1.2193 C   0  0  0  0  0  4           0  0  0
    3.3361   -4.3937    3.4376 C   0  0  0  0  0  4           0  0  0
    3.8877   -4.4897    2.0200 C   0  0  0  0  0  4           0  0  0
  1 18  1  0     0  0
  2 18  1  0     0  0
  3 18  1  0     0  0
  4 19  1  0     0  0
  5 19  1  0     0  0
  6 19  1  0     0  0
  7 12  1  0     0  0
  7 21  1  0     0  0
  8 13  1  0     0  0
  8 22  1  0     0  0
  9 20  2  0     0  0
 10 20  1  0     0  0
 10 24  1  0     0  0
 11 23  1  0     0  0
 11 25  1  0     0  0
 12 14  1  0     0  0
 12 16  2  0     0  0
 13 15  1  0     0  0
 13 17  2  0     0  0
 14 15  2  0     0  0
 14 20  1  0     0  0
 16 17  1  0     0  0
 18 21  1  0     0  0
 19 22  1  0     0  0
 23 24  1  0     0  0
 23 26  1  0     0  0
 25 27  1  0     0  0
 26 28  1  0     0  0
 27 28  1  0     0  0
M  END
> <standard_type>
pIC50

> <# Confs.>
25

> <canonical_smiles>
O=C(NCC1CCCCN1)C2=CC(OCC(F)(F)F)=CC=C2OCC(F)(F)F

> <standard_relation>
=

> <Publication_ID>
nan

> <predicted_activity_value>
nan

> <actual_activity_value>
-0.5921767573958668

> <Compound>
Flecainide

> <standard_units>
uM

> hash
699213466552616326

$$$$
20
XXILIB    08252103503D 0   0.00000     0.00000

 28 29  0     1  0            999 V2000
    1.8443   -0.9857    4.1670 F   0  0  0  0  0  1           0  0  0
    0.1960    0.0649    5.1437 F   0  0  0  0  0  1           0  0  0
    0.2948   -2.1129    5.2083 F   0  0  0  0  0  1           0  0  0
   -3.1697    2.1072   -4.1620 F   0  0  0  0  0  1           0  0  0
   -4.1449    0.2678   -4.8255 F   0  0  0  0  0  1           0  0  0
   -5.3191    1.8530   -3.8954 F   0  0  0  0  0  1           0  0  0
   -0.0026    0.0436    2.3741 O   0  0  0  0  0  2           0  0  0
   -2.6355   -0.0592   -2.5198 O   0  0  0  0  0  2           0  0  0
    2.0860   -0.5350   -0.9267 O   0  0  0  0  0  2           0  0  0
    2.0873    0.6161    1.0729 N   0  0  0  0  0  3           0  0  0
    3.3991    2.8028    2.4231 N   0  0  0  0  0  3           0  0  0
   -0.7226    0.0000    1.2074 C   0  0  0  0  0  4           0  0  0
   -2.0852   -0.0378   -1.2635 C   0  0  0  0  0  4           0  0  0
    0.0000    0.0000    0.0000 C   0  0  0  0  0  4           0  0  0
   -0.6869   -0.0217   -1.2255 C   0  0  0  0  0  4           0  0  0
   -2.1230   -0.0136    1.1585 C   0  0  0  0  0  4           0  0  0
   -2.7997   -0.0320   -0.0661 C   0  0  0  0  0  4           0  0  0
    0.5212   -1.0329    4.4292 C   0  0  2  0  0  4           0  0  0
   -4.1316    1.2101   -3.8595 C   0  0  2  0  0  4           0  0  0
    1.4819   -0.0000   -0.0000 C   0  0  0  0  0  4           0  0  0
   -0.2849   -1.1163    3.1607 C   0  0  0  0  0  4           0  0  0
   -3.9014    0.5979   -2.5037 C   0  0  0  0  0  4           0  0  0
    4.0210    2.1371    1.2687 C   0  0  2  0  0  4           0  0  0
    3.5259    0.6939    1.2146 C   0  0  0  0  0  4           0  0  0
    3.8575    4.1851    2.5628 C   0  0  0  0  0  4           0  0  0
    3.6851    2.8975   -0.0257 C   0  0  0  0  0  4           0  0  0
    3.5345    5.0098    1.3196 C   0  0  0  0  0  4           0  0  0
    4.1082    4.3618    0.0647 C   0  0  0  0  0  4           0  0  0
  1 18  1  0     0  0
  2 18  1  0     0  0
  3 18  1  0     0  0
  4 19  1  0     0  0
  5 19  1  0     0  0
  6 19  1  0     0  0
  7 12  1  0     0  0
  7 21  1  0     0  0
  8 13  1  0     0  0
  8 22  1  0     0  0
  9 20  2  0     0  0
 10 20  1  0     0  0
 10 24  1  0     0  0
 11 23  1  0     0  0
 11 25  1  0     0  0
 12 14  1  0     0  0
 12 16  2  0     0  0
 13 15  1  0     0  0
 13 17  2  0     0  0
 14 15  2  0     0  0
 14 20  1  0     0  0
 16 17  1  0     0  0
 18 21  1  0     0  0
 19 22  1  0     0  0
 23 24  1  0     0  0
 23 26  1  0     0  0
 25 27  1  0     0  0
 26 28  1  0     0  0
 27 28  1  0     0  0
M  END
> <standard_type>
pIC50

> <# Confs.>
25

> <canonical_smiles>
O=C(NCC1CCCCN1)C2=CC(OCC(F)(F)F)=CC=C2OCC(F)(F)F

> <standard_relation>
=

> <Publication_ID>
nan

> <predicted_activity_value>
nan

> <actual_activity_value>
-0.5921767573958668

> <Compound>
Flecainide

> <standard_units>
uM

> hash
699213466552616326

$$$$
20
XXILIB    08252103503D 0   0.00000     0.00000

 28 29  0     1  0            999 V2000
    1.8443   -0.9857    4.1670 F   0  0  0  0  0  1           0  0  0
    0.1960    0.0649    5.1437 F   0  0  0  0  0  1           0  0  0
    0.2948   -2.1129    5.2083 F   0  0  0  0  0  1           0  0  0
   -4.1235   -0.4780   -4.8190 F   0  0  0  0  0  1           0  0  0
   -3.1273   -2.2857   -4.1017 F   0  0  0  0  0  1           0  0  0
   -5.2814   -2.0529   -3.8522 F   0  0  0  0  0  1           0  0  0
   -0.0026    0.0436    2.3741 O   0  0  0  0  0  2           0  0  0
   -2.6355   -0.0592   -2.5198 O   0  0  0  0  0  2           0  0  0
    2.0860   -0.5350   -0.9267 O   0  0  0  0  0  2           0  0  0
    2.0873    0.6161    1.0729 N   0  0  0  0  0  3           0  0  0
    3.3991    2.8028    2.4231 N   0  0  0  0  0  3           0  0  0
   -0.7226   -0.0000    1.2074 C   0  0  0  0  0  4           0  0  0
   -2.0852   -0.0378   -1.2635 C   0  0  0  0  0  4           0  0  0
    0.0000    0.0000    0.0000 C   0  0  0  0  0  4           0  0  0
   -0.6869   -0.0217   -1.2255 C   0  0  0  0  0  4           0  0  0
   -2.1230   -0.0136    1.1585 C   0  0  0  0  0  4           0  0  0
   -2.7997   -0.0320   -0.0661 C   0  0  0  0  0  4           0  0  0
    0.5212   -1.0329    4.4292 C   0  0  2  0  0  4           0  0  0
   -4.1025   -1.3939   -3.8279 C   0  0  2  0  0  4           0  0  0
    1.4819   -0.0000   -0.0000 C   0  0  0  0  0  4           0  0  0
   -0.2849   -1.1163    3.1607 C   0  0  0  0  0  4           0  0  0
   -3.8864   -0.7440   -2.4874 C   0  0  0  0  0  4           0  0  0
    4.0210    2.1371    1.2687 C   0  0  2  0  0  4           0  0  0
    3.5259    0.6939    1.2146 C   0  0  0  0  0  4           0  0  0
    3.8575    4.1851    2.5628 C   0  0  0  0  0  4           0  0  0
    3.6851    2.8975   -0.0257 C   0  0  0  0  0  4           0  0  0
    3.5345    5.0098    1.3196 C   0  0  0  0  0  4           0  0  0
    4.1082    4.3618    0.0647 C   0  0  0  0  0  4           0  0  0
  1 18  1  0     0  0
  2 18  1  0     0  0
  3 18  1  0     0  0
  4 19  1  0     0  0
  5 19  1  0     0  0
  6 19  1  0     0  0
  7 12  1  0     0  0
  7 21  1  0     0  0
  8 13  1  0     0  0
  8 22  1  0     0  0
  9 20  2  0     0  0
 10 20  1  0     0  0
 10 24  1  0     0  0
 11 23  1  0     0  0
 11 25  1  0     0  0
 12 14  1  0     0  0
 12 16  2  0     0  0
 13 15  1  0     0  0
 13 17  2  0     0  0
 14 15  2  0     0  0
 14 20  1  0     0  0
 16 17  1  0     0  0
 18 21  1  0     0  0
 19 22  1  0     0  0
 23 24  1  0     0  0
 23 26  1  0     0  0
 25 27  1  0     0  0
 26 28  1  0     0  0
 27 28  1  0     0  0
M  END
> <standard_type>
pIC50

> <# Confs.>
25

> <canonical_smiles>
O=C(NCC1CCCCN1)C2=CC(OCC(F)(F)F)=CC=C2OCC(F)(F)F

> <standard_relation>
=

> <Publication_ID>
nan

> <predicted_activity_value>
nan

> <actual_activity_value>
-0.5921767573958668

> <Compound>
Flecainide

> <standard_units>
uM

> hash
699213466552616326

$$$$
20
XXILIB    08252103503D 0   0.00000     0.00000

 28 29  0     1  0            999 V2000
    0.2045    0.1302    5.1372 F   0  0  0  0  0  1           0  0  0
    1.7749    1.2631    4.1246 F   0  0  0  0  0  1           0  0  0
    0.1491    2.3103    5.1329 F   0  0  0  0  0  1           0  0  0
   -4.1235   -0.4780   -4.8190 F   0  0  0  0  0  1           0  0  0
   -3.1273   -2.2857   -4.1017 F   0  0  0  0  0  1           0  0  0
   -5.2814   -2.0529   -3.8522 F   0  0  0  0  0  1           0  0  0
   -0.0026    0.0436    2.3741 O   0  0  0  0  0  2           0  0  0
   -2.6355   -0.0592   -2.5198 O   0  0  0  0  0  2           0  0  0
    2.0860    0.5350   -0.9267 O   0  0  0  0  0  2           0  0  0
    2.0873   -0.6211    1.0700 N   0  0  0  0  0  3           0  0  0
    3.3921   -2.8136    2.4125 N   0  0  0  0  0  3           0  0  0
   -0.7226   -0.0000    1.2074 C   0  0  0  0  0  4           0  0  0
   -2.0852   -0.0378   -1.2635 C   0  0  0  0  0  4           0  0  0
    0.0000    0.0000    0.0000 C   0  0  0  0  0  4           0  0  0
   -0.6869   -0.0217   -1.2255 C   0  0  0  0  0  4           0  0  0
   -2.1230   -0.0136    1.1585 C   0  0  0  0  0  4           0  0  0
   -2.7997   -0.0320   -0.0661 C   0  0  0  0  0  4           0  0  0
    0.4518    1.2251    4.3877 C   0  0  2  0  0  4           0  0  0
   -4.1025   -1.3939   -3.8279 C   0  0  2  0  0  4           0  0  0
    1.4819   -0.0000   -0.0000 C   0  0  0  0  0  4           0  0  0
   -0.3565    1.2121    3.1178 C   0  0  0  0  0  4           0  0  0
   -3.8864   -0.7440   -2.4874 C   0  0  0  0  0  4           0  0  0
    4.0155   -2.1501    1.2576 C   0  0  2  0  0  4           0  0  0
    3.5259   -0.7049    1.2082 C   0  0  0  0  0  4           0  0  0
    3.8382   -4.2002    2.5478 C   0  0  0  0  0  4           0  0  0
    3.6750   -2.9053   -0.0388 C   0  0  0  0  0  4           0  0  0
    3.5047   -5.0181    1.3037 C   0  0  0  0  0  4           0  0  0
    4.0837   -4.3738    0.0495 C   0  0  0  0  0  4           0  0  0
  1 18  1  0     0  0
  2 18  1  0     0  0
  3 18  1  0     0  0
  4 19  1  0     0  0
  5 19  1  0     0  0
  6 19  1  0     0  0
  7 12  1  0     0  0
  7 21  1  0     0  0
  8 13  1  0     0  0
  8 22  1  0     0  0
  9 20  2  0     0  0
 10 20  1  0     0  0
 10 24  1  0     0  0
 11 23  1  0     0  0
 11 25  1  0     0  0
 12 14  1  0     0  0
 12 16  2  0     0  0
 13 15  1  0     0  0
 13 17  2  0     0  0
 14 15  2  0     0  0
 14 20  1  0     0  0
 16 17  1  0     0  0
 18 21  1  0     0  0
 19 22  1  0     0  0
 23 24  1  0     0  0
 23 26  1  0     0  0
 25 27  1  0     0  0
 26 28  1  0     0  0
 27 28  1  0     0  0
M  END
> <standard_type>
pIC50

> <# Confs.>
25

> <canonical_smiles>
O=C(NCC1CCCCN1)C2=CC(OCC(F)(F)F)=CC=C2OCC(F)(F)F

> <standard_relation>
=

> <Publication_ID>
nan

> <predicted_activity_value>
nan

> <actual_activity_value>
-0.5921767573958668

> <Compound>
Flecainide

> <standard_units>
uM

> hash
699213466552616326

$$$$
20
XXILIB    08252103503D 0   0.00000     0.00000

 28 29  0     1  0            999 V2000
    1.8443   -0.9857    4.1670 F   0  0  0  0  0  1           0  0  0
    0.1960    0.0649    5.1437 F   0  0  0  0  0  1           0  0  0
    0.2948   -2.1129    5.2083 F   0  0  0  0  0  1           0  0  0
   -4.1235   -0.4780   -4.8190 F   0  0  0  0  0  1           0  0  0
   -3.1273   -2.2857   -4.1017 F   0  0  0  0  0  1           0  0  0
   -5.2814   -2.0529   -3.8522 F   0  0  0  0  0  1           0  0  0
   -0.0026    0.0436    2.3741 O   0  0  0  0  0  2           0  0  0
   -2.6355   -0.0592   -2.5198 O   0  0  0  0  0  2           0  0  0
    2.0860   -0.9267    0.5350 O   0  0  0  0  0  2           0  0  0
    2.0873    1.0729   -0.6161 N   0  0  0  0  0  3           0  0  0
    3.4914    3.3176    0.5309 N   0  0  0  0  0  3           0  0  0
   -0.7226   -0.0000    1.2074 C   0  0  0  0  0  4           0  0  0
   -2.0852   -0.0378   -1.2635 C   0  0  0  0  0  4           0  0  0
    0.0000    0.0000    0.0000 C   0  0  0  0  0  4           0  0  0
   -0.6869   -0.0217   -1.2255 C   0  0  0  0  0  4           0  0  0
   -2.1230   -0.0136    1.1585 C   0  0  0  0  0  4           0  0  0
   -2.7997   -0.0320   -0.0661 C   0  0  0  0  0  4           0  0  0
    0.5212   -1.0329    4.4292 C   0  0  2  0  0  4           0  0  0
   -4.1025   -1.3939   -3.8279 C   0  0  2  0  0  4           0  0  0
    1.4819   -0.0000    0.0000 C   0  0  0  0  0  4           0  0  0
   -0.2849   -1.1163    3.1607 C   0  0  0  0  0  4           0  0  0
   -3.8864   -0.7440   -2.4874 C   0  0  0  0  0  4           0  0  0
    4.0940    1.9764    0.5009 C   0  0  2  0  0  4           0  0  0
    3.5259    1.2146   -0.6939 C   0  0  0  0  0  4           0  0  0
    3.9613    4.0969    1.6765 C   0  0  0  0  0  4           0  0  0
    5.6265    2.0857    0.4232 C   0  0  0  0  0  4           0  0  0
    5.4780    4.2678    1.6523 C   0  0  0  0  0  4           0  0  0
    6.1830    2.9184    1.5756 C   0  0  0  0  0  4           0  0  0
  1 18  1  0     0  0
  2 18  1  0     0  0
  3 18  1  0     0  0
  4 19  1  0     0  0
  5 19  1  0     0  0
  6 19  1  0     0  0
  7 12  1  0     0  0
  7 21  1  0     0  0
  8 13  1  0     0  0
  8 22  1  0     0  0
  9 20  2  0     0  0
 10 20  1  0     0  0
 10 24  1  0     0  0
 11 23  1  0     0  0
 11 25  1  0     0  0
 12 14  1  0     0  0
 12 16  2  0     0  0
 13 15  1  0     0  0
 13 17  2  0     0  0
 14 15  2  0     0  0
 14 20  1  0     0  0
 16 17  1  0     0  0
 18 21  1  0     0  0
 19 22  1  0     0  0
 23 24  1  0     0  0
 23 26  1  0     0  0
 25 27  1  0     0  0
 26 28  1  0     0  0
 27 28  1  0     0  0
M  END
> <standard_type>
pIC50

> <# Confs.>
25

> <canonical_smiles>
O=C(NCC1CCCCN1)C2=CC(OCC(F)(F)F)=CC=C2OCC(F)(F)F

> <standard_relation>
=

> <Publication_ID>
nan

> <predicted_activity_value>
nan

> <actual_activity_value>
-0.5921767573958668

> <Compound>
Flecainide

> <standard_units>
uM

> hash
699213466552616326

$$$$
20
XXILIB    08252103503D 0   0.00000     0.00000

 28 29  0     1  0            999 V2000
    1.8443   -0.9857    4.1670 F   0  0  0  0  0  1           0  0  0
    0.1960    0.0649    5.1437 F   0  0  0  0  0  1           0  0  0
    0.2948   -2.1129    5.2083 F   0  0  0  0  0  1           0  0  0
   -3.1697    2.1072   -4.1620 F   0  0  0  0  0  1           0  0  0
   -4.1449    0.2678   -4.8255 F   0  0  0  0  0  1           0  0  0
   -5.3191    1.8530   -3.8954 F   0  0  0  0  0  1           0  0  0
   -0.0026    0.0436    2.3741 O   0  0  0  0  0  2           0  0  0
   -2.6355   -0.0592   -2.5198 O   0  0  0  0  0  2           0  0  0
    2.0860   -0.9267    0.5350 O   0  0  0  0  0  2           0  0  0
    2.0873    1.0729   -0.6161 N   0  0  0  0  0  3           0  0  0
    3.4914    3.3176    0.5309 N   0  0  0  0  0  3           0  0  0
   -0.7226    0.0000    1.2074 C   0  0  0  0  0  4           0  0  0
   -2.0852   -0.0378   -1.2635 C   0  0  0  0  0  4           0  0  0
    0.0000    0.0000    0.0000 C   0  0  0  0  0  4           0  0  0
   -0.6869   -0.0217   -1.2255 C   0  0  0  0  0  4           0  0  0
   -2.1230   -0.0136    1.1585 C   0  0  0  0  0  4           0  0  0
   -2.7997   -0.0320   -0.0661 C   0  0  0  0  0  4           0  0  0
    0.5212   -1.0329    4.4292 C   0  0  2  0  0  4           0  0  0
   -4.1316    1.2101   -3.8595 C   0  0  2  0  0  4           0  0  0
    1.4819   -0.0000    0.0000 C   0  0  0  0  0  4           0  0  0
   -0.2849   -1.1163    3.1607 C   0  0  0  0  0  4           0  0  0
   -3.9014    0.5979   -2.5037 C   0  0  0  0  0  4           0  0  0
    4.0940    1.9764    0.5009 C   0  0  2  0  0  4           0  0  0
    3.5259    1.2146   -0.6939 C   0  0  0  0  0  4           0  0  0
    3.9613    4.0969    1.6765 C   0  0  0  0  0  4           0  0  0
    5.6265    2.0857    0.4232 C   0  0  0  0  0  4           0  0  0
    5.4780    4.2678    1.6523 C   0  0  0  0  0  4           0  0  0
    6.1830    2.9184    1.5756 C   0  0  0  0  0  4           0  0  0
  1 18  1  0     0  0
  2 18  1  0     0  0
  3 18  1  0     0  0
  4 19  1  0     0  0
  5 19  1  0     0  0
  6 19  1  0     0  0
  7 12  1  0     0  0
  7 21  1  0     0  0
  8 13  1  0     0  0
  8 22  1  0     0  0
  9 20  2  0     0  0
 10 20  1  0     0  0
 10 24  1  0     0  0
 11 23  1  0     0  0
 11 25  1  0     0  0
 12 14  1  0     0  0
 12 16  2  0     0  0
 13 15  1  0     0  0
 13 17  2  0     0  0
 14 15  2  0     0  0
 14 20  1  0     0  0
 16 17  1  0     0  0
 18 21  1  0     0  0
 19 22  1  0     0  0
 23 24  1  0     0  0
 23 26  1  0     0  0
 25 27  1  0     0  0
 26 28  1  0     0  0
 27 28  1  0     0  0
M  END
> <standard_type>
pIC50

> <# Confs.>
25

> <canonical_smiles>
O=C(NCC1CCCCN1)C2=CC(OCC(F)(F)F)=CC=C2OCC(F)(F)F

> <standard_relation>
=

> <Publication_ID>
nan

> <predicted_activity_value>
nan

> <actual_activity_value>
-0.5921767573958668

> <Compound>
Flecainide

> <standard_units>
uM

> hash
699213466552616326

$$$$
20
XXILIB    08252103503D 0   0.00000     0.00000

 28 29  0     1  0            999 V2000
    1.8443   -0.9857    4.1670 F   0  0  0  0  0  1           0  0  0
    0.1960    0.0649    5.1437 F   0  0  0  0  0  1           0  0  0
    0.2948   -2.1129    5.2083 F   0  0  0  0  0  1           0  0  0
   -4.1235   -0.4780   -4.8190 F   0  0  0  0  0  1           0  0  0
   -3.1273   -2.2857   -4.1017 F   0  0  0  0  0  1           0  0  0
   -5.2814   -2.0529   -3.8522 F   0  0  0  0  0  1           0  0  0
   -0.0026    0.0436    2.3741 O   0  0  0  0  0  2           0  0  0
   -2.6355   -0.0592   -2.5198 O   0  0  0  0  0  2           0  0  0
    2.0860   -1.0700    0.0000 O   0  0  0  0  0  2           0  0  0
    2.0873    1.2373    0.0029 N   0  0  0  0  0  3           0  0  0
    3.4914    2.6076    2.1186 N   0  0  0  0  0  3           0  0  0
   -0.7226   -0.0000    1.2074 C   0  0  0  0  0  4           0  0  0
   -2.0852   -0.0378   -1.2635 C   0  0  0  0  0  4           0  0  0
    0.0000    0.0000    0.0000 C   0  0  0  0  0  4           0  0  0
   -0.6869   -0.0217   -1.2255 C   0  0  0  0  0  4           0  0  0
   -2.1230   -0.0136    1.1585 C   0  0  0  0  0  4           0  0  0
   -2.7997   -0.0320   -0.0661 C   0  0  0  0  0  4           0  0  0
    0.5212   -1.0329    4.4292 C   0  0  2  0  0  4           0  0  0
   -4.1025   -1.3939   -3.8279 C   0  0  2  0  0  4           0  0  0
    1.4819   -0.0000    0.0000 C   0  0  0  0  0  4           0  0  0
   -0.2849   -1.1163    3.1607 C   0  0  0  0  0  4           0  0  0
   -3.8864   -0.7440   -2.4874 C   0  0  0  0  0  4           0  0  0
    4.0940    1.4612    1.4220 C   0  0  2  0  0  4           0  0  0
    3.5259    1.3988    0.0063 C   0  0  0  0  0  4           0  0  0
    3.9613    2.7098    3.5003 C   0  0  0  0  0  4           0  0  0
    5.6265    1.5947    1.4093 C   0  0  0  0  0  4           0  0  0
    5.4780    2.8699    3.5649 C   0  0  0  0  0  4           0  0  0
    6.1830    1.7396    2.8237 C   0  0  0  0  0  4           0  0  0
  1 18  1  0     0  0
  2 18  1  0     0  0
  3 18  1  0     0  0
  4 19  1  0     0  0
  5 19  1  0     0  0
  6 19  1  0     0  0
  7 12  1  0     0  0
  7 21  1  0     0  0
  8 13  1  0     0  0
  8 22  1  0     0  0
  9 20  2  0     0  0
 10 20  1  0     0  0
 10 24  1  0     0  0
 11 23  1  0     0  0
 11 25  1  0     0  0
 12 14  1  0     0  0
 12 16  2  0     0  0
 13 15  1  0     0  0
 13 17  2  0     0  0
 14 15  2  0     0  0
 14 20  1  0     0  0
 16 17  1  0     0  0
 18 21  1  0     0  0
 19 22  1  0     0  0
 23 24  1  0     0  0
 23 26  1  0     0  0
 25 27  1  0     0  0
 26 28  1  0     0  0
 27 28  1  0     0  0
M  END
> <standard_type>
pIC50

> <# Confs.>
25

> <canonical_smiles>
O=C(NCC1CCCCN1)C2=CC(OCC(F)(F)F)=CC=C2OCC(F)(F)F

> <standard_relation>
=

> <Publication_ID>
nan

> <predicted_activity_value>
nan

> <actual_activity_value>
-0.5921767573958668

> <Compound>
Flecainide

> <standard_units>
uM

> hash
699213466552616326

$$$$
20
XXILIB    08252103503D 0   0.00000     0.00000

 28 29  0     1  0            999 V2000
    1.8443   -0.9857    4.1670 F   0  0  0  0  0  1           0  0  0
    0.1960    0.0649    5.1437 F   0  0  0  0  0  1           0  0  0
    0.2948   -2.1129    5.2083 F   0  0  0  0  0  1           0  0  0
   -3.1697    2.1072   -4.1620 F   0  0  0  0  0  1           0  0  0
   -4.1449    0.2678   -4.8255 F   0  0  0  0  0  1           0  0  0
   -5.3191    1.8530   -3.8954 F   0  0  0  0  0  1           0  0  0
   -0.0026    0.0436    2.3741 O   0  0  0  0  0  2           0  0  0
   -2.6355   -0.0592   -2.5198 O   0  0  0  0  0  2           0  0  0
    2.0860   -1.0700    0.0000 O   0  0  0  0  0  2           0  0  0
    2.0873    1.2373    0.0029 N   0  0  0  0  0  3           0  0  0
    3.4914    2.6076    2.1186 N   0  0  0  0  0  3           0  0  0
   -0.7226    0.0000    1.2074 C   0  0  0  0  0  4           0  0  0
   -2.0852   -0.0378   -1.2635 C   0  0  0  0  0  4           0  0  0
    0.0000    0.0000    0.0000 C   0  0  0  0  0  4           0  0  0
   -0.6869   -0.0217   -1.2255 C   0  0  0  0  0  4           0  0  0
   -2.1230   -0.0136    1.1585 C   0  0  0  0  0  4           0  0  0
   -2.7997   -0.0320   -0.0661 C   0  0  0  0  0  4           0  0  0
    0.5212   -1.0329    4.4292 C   0  0  2  0  0  4           0  0  0
   -4.1316    1.2101   -3.8595 C   0  0  2  0  0  4           0  0  0
    1.4819   -0.0000    0.0000 C   0  0  0  0  0  4           0  0  0
   -0.2849   -1.1163    3.1607 C   0  0  0  0  0  4           0  0  0
   -3.9014    0.5979   -2.5037 C   0  0  0  0  0  4           0  0  0
    4.0940    1.4612    1.4220 C   0  0  2  0  0  4           0  0  0
    3.5259    1.3988    0.0063 C   0  0  0  0  0  4           0  0  0
    3.9613    2.7098    3.5003 C   0  0  0  0  0  4           0  0  0
    5.6265    1.5947    1.4093 C   0  0  0  0  0  4           0  0  0
    5.4780    2.8699    3.5649 C   0  0  0  0  0  4           0  0  0
    6.1830    1.7396    2.8237 C   0  0  0  0  0  4           0  0  0
  1 18  1  0     0  0
  2 18  1  0     0  0
  3 18  1  0     0  0
  4 19  1  0     0  0
  5 19  1  0     0  0
  6 19  1  0     0  0
  7 12  1  0     0  0
  7 21  1  0     0  0
  8 13  1  0     0  0
  8 22  1  0     0  0
  9 20  2  0     0  0
 10 20  1  0     0  0
 10 24  1  0     0  0
 11 23  1  0     0  0
 11 25  1  0     0  0
 12 14  1  0     0  0
 12 16  2  0     0  0
 13 15  1  0     0  0
 13 17  2  0     0  0
 14 15  2  0     0  0
 14 20  1  0     0  0
 16 17  1  0     0  0
 18 21  1  0     0  0
 19 22  1  0     0  0
 23 24  1  0     0  0
 23 26  1  0     0  0
 25 27  1  0     0  0
 26 28  1  0     0  0
 27 28  1  0     0  0
M  END
> <standard_type>
pIC50

> <# Confs.>
25

> <canonical_smiles>
O=C(NCC1CCCCN1)C2=CC(OCC(F)(F)F)=CC=C2OCC(F)(F)F

> <standard_relation>
=

> <Publication_ID>
nan

> <predicted_activity_value>
nan

> <actual_activity_value>
-0.5921767573958668

> <Compound>
Flecainide

> <standard_units>
uM

> hash
699213466552616326

$$$$
20
XXILIB    08252103503D 0   0.00000     0.00000

 28 29  0     1  0            999 V2000
    1.2352    0.6740    4.7732 F   0  0  0  0  0  1           0  0  0
    1.8863    1.9394    3.1150 F   0  0  0  0  0  1           0  0  0
    0.5588    2.7434    4.6473 F   0  0  0  0  0  1           0  0  0
   -3.1697    2.1072   -4.1620 F   0  0  0  0  0  1           0  0  0
   -4.1449    0.2678   -4.8255 F   0  0  0  0  0  1           0  0  0
   -5.3191    1.8530   -3.8954 F   0  0  0  0  0  1           0  0  0
   -0.0026    0.0436    2.3741 O   0  0  0  0  0  2           0  0  0
   -2.6355   -0.0592   -2.5198 O   0  0  0  0  0  2           0  0  0
    2.0860    0.5350   -0.9267 O   0  0  0  0  0  2           0  0  0
    2.0873   -0.6211    1.0700 N   0  0  0  0  0  3           0  0  0
    3.3921   -2.8136    2.4125 N   0  0  0  0  0  3           0  0  0
   -0.7226    0.0000    1.2074 C   0  0  0  0  0  4           0  0  0
   -2.0852   -0.0378   -1.2635 C   0  0  0  0  0  4           0  0  0
    0.0000    0.0000    0.0000 C   0  0  0  0  0  4           0  0  0
   -0.6869   -0.0217   -1.2255 C   0  0  0  0  0  4           0  0  0
   -2.1230   -0.0136    1.1585 C   0  0  0  0  0  4           0  0  0
   -2.7997   -0.0320   -0.0661 C   0  0  0  0  0  4           0  0  0
    0.8435    1.6423    3.9185 C   0  0  2  0  0  4           0  0  0
   -4.1316    1.2101   -3.8595 C   0  0  2  0  0  4           0  0  0
    1.4819   -0.0000   -0.0000 C   0  0  0  0  0  4           0  0  0
   -0.3565    1.2121    3.1178 C   0  0  0  0  0  4           0  0  0
   -3.9014    0.5979   -2.5037 C   0  0  0  0  0  4           0  0  0
    4.0155   -2.1501    1.2576 C   0  0  2  0  0  4           0  0  0
    3.5259   -0.7049    1.2082 C   0  0  0  0  0  4           0  0  0
    3.8382   -4.2002    2.5478 C   0  0  0  0  0  4           0  0  0
    3.6750   -2.9053   -0.0388 C   0  0  0  0  0  4           0  0  0
    3.5047   -5.0181    1.3037 C   0  0  0  0  0  4           0  0  0
    4.0837   -4.3738    0.0495 C   0  0  0  0  0  4           0  0  0
  1 18  1  0     0  0
  2 18  1  0     0  0
  3 18  1  0     0  0
  4 19  1  0     0  0
  5 19  1  0     0  0
  6 19  1  0     0  0
  7 12  1  0     0  0
  7 21  1  0     0  0
  8 13  1  0     0  0
  8 22  1  0     0  0
  9 20  2  0     0  0
 10 20  1  0     0  0
 10 24  1  0     0  0
 11 23  1  0     0  0
 11 25  1  0     0  0
 12 14  1  0     0  0
 12 16  2  0     0  0
 13 15  1  0     0  0
 13 17  2  0     0  0
 14 15  2  0     0  0
 14 20  1  0     0  0
 16 17  1  0     0  0
 18 21  1  0     0  0
 19 22  1  0     0  0
 23 24  1  0     0  0
 23 26  1  0     0  0
 25 27  1  0     0  0
 26 28  1  0     0  0
 27 28  1  0     0  0
M  END
> <standard_type>
pIC50

> <# Confs.>
25

> <canonical_smiles>
O=C(NCC1CCCCN1)C2=CC(OCC(F)(F)F)=CC=C2OCC(F)(F)F

> <standard_relation>
=

> <Publication_ID>
nan

> <predicted_activity_value>
nan

> <actual_activity_value>
-0.5921767573958668

> <Compound>
Flecainide

> <standard_units>
uM

> hash
699213466552616326

$$$$
20
XXILIB    08252103503D 0   0.00000     0.00000

 28 29  0     1  0            999 V2000
    1.8443   -0.9857    4.1670 F   0  0  0  0  0  1           0  0  0
    0.1960    0.0649    5.1437 F   0  0  0  0  0  1           0  0  0
    0.2948   -2.1129    5.2083 F   0  0  0  0  0  1           0  0  0
   -4.1235   -0.4780   -4.8190 F   0  0  0  0  0  1           0  0  0
   -3.1273   -2.2857   -4.1017 F   0  0  0  0  0  1           0  0  0
   -5.2814   -2.0529   -3.8522 F   0  0  0  0  0  1           0  0  0
   -0.0026    0.0436    2.3741 O   0  0  0  0  0  2           0  0  0
   -2.6355   -0.0592   -2.5198 O   0  0  0  0  0  2           0  0  0
    2.0860   -0.9267    0.5350 O   0  0  0  0  0  2           0  0  0
    2.0873    1.0729   -0.6161 N   0  0  0  0  0  3           0  0  0
    3.4991    1.2132   -3.1258 N   0  0  0  0  0  3           0  0  0
   -0.7226   -0.0000    1.2074 C   0  0  0  0  0  4           0  0  0
   -2.0852   -0.0378   -1.2635 C   0  0  0  0  0  4           0  0  0
    0.0000    0.0000    0.0000 C   0  0  0  0  0  4           0  0  0
   -0.6869   -0.0217   -1.2255 C   0  0  0  0  0  4           0  0  0
   -2.1230   -0.0136    1.1585 C   0  0  0  0  0  4           0  0  0
   -2.7997   -0.0320   -0.0661 C   0  0  0  0  0  4           0  0  0
    0.5212   -1.0329    4.4292 C   0  0  2  0  0  4           0  0  0
   -4.1025   -1.3939   -3.8279 C   0  0  2  0  0  4           0  0  0
    1.4819   -0.0000    0.0000 C   0  0  0  0  0  4           0  0  0
   -0.2849   -1.1163    3.1607 C   0  0  0  0  0  4           0  0  0
   -3.8864   -0.7440   -2.4874 C   0  0  0  0  0  4           0  0  0
    4.1003    0.5652   -1.9506 C   0  0  2  0  0  4           0  0  0
    3.5259    1.2146   -0.6939 C   0  0  0  0  0  4           0  0  0
    3.9772    0.6220   -4.3756 C   0  0  0  0  0  4           0  0  0
    5.6330    0.6895   -1.9991 C   0  0  0  0  0  4           0  0  0
    5.4932    0.7369   -4.5037 C   0  0  0  0  0  4           0  0  0
    6.1960    0.1210   -3.2996 C   0  0  0  0  0  4           0  0  0
  1 18  1  0     0  0
  2 18  1  0     0  0
  3 18  1  0     0  0
  4 19  1  0     0  0
  5 19  1  0     0  0
  6 19  1  0     0  0
  7 12  1  0     0  0
  7 21  1  0     0  0
  8 13  1  0     0  0
  8 22  1  0     0  0
  9 20  2  0     0  0
 10 20  1  0     0  0
 10 24  1  0     0  0
 11 23  1  0     0  0
 11 25  1  0     0  0
 12 14  1  0     0  0
 12 16  2  0     0  0
 13 15  1  0     0  0
 13 17  2  0     0  0
 14 15  2  0     0  0
 14 20  1  0     0  0
 16 17  1  0     0  0
 18 21  1  0     0  0
 19 22  1  0     0  0
 23 24  1  0     0  0
 23 26  1  0     0  0
 25 27  1  0     0  0
 26 28  1  0     0  0
 27 28  1  0     0  0
M  END
> <standard_type>
pIC50

> <# Confs.>
25

> <canonical_smiles>
O=C(NCC1CCCCN1)C2=CC(OCC(F)(F)F)=CC=C2OCC(F)(F)F

> <standard_relation>
=

> <Publication_ID>
nan

> <predicted_activity_value>
nan

> <actual_activity_value>
-0.5921767573958668

> <Compound>
Flecainide

> <standard_units>
uM

> hash
699213466552616326

$$$$
20
XXILIB    08252103503D 0   0.00000     0.00000

 28 29  0     1  0            999 V2000
    1.8443   -0.9857    4.1670 F   0  0  0  0  0  1           0  0  0
    0.1960    0.0649    5.1437 F   0  0  0  0  0  1           0  0  0
    0.2948   -2.1129    5.2083 F   0  0  0  0  0  1           0  0  0
   -4.1235   -0.4780   -4.8190 F   0  0  0  0  0  1           0  0  0
   -3.1273   -2.2857   -4.1017 F   0  0  0  0  0  1           0  0  0
   -5.2814   -2.0529   -3.8522 F   0  0  0  0  0  1           0  0  0
   -0.0026    0.0436    2.3741 O   0  0  0  0  0  2           0  0  0
   -2.6355   -0.0592   -2.5198 O   0  0  0  0  0  2           0  0  0
    2.0860   -0.9267    0.5350 O   0  0  0  0  0  2           0  0  0
    2.0873    1.0729   -0.6161 N   0  0  0  0  0  3           0  0  0
    3.3595    3.3139   -1.9143 N   0  0  0  0  0  3           0  0  0
   -0.7226   -0.0000    1.2074 C   0  0  0  0  0  4           0  0  0
   -2.0852   -0.0378   -1.2635 C   0  0  0  0  0  4           0  0  0
    0.0000    0.0000    0.0000 C   0  0  0  0  0  4           0  0  0
   -0.6869   -0.0217   -1.2255 C   0  0  0  0  0  4           0  0  0
   -2.1230   -0.0136    1.1585 C   0  0  0  0  0  4           0  0  0
   -2.7997   -0.0320   -0.0661 C   0  0  0  0  0  4           0  0  0
    0.5212   -1.0329    4.4292 C   0  0  2  0  0  4           0  0  0
   -4.1025   -1.3939   -3.8279 C   0  0  2  0  0  4           0  0  0
    1.4819   -0.0000    0.0000 C   0  0  0  0  0  4           0  0  0
   -0.2849   -1.1163    3.1607 C   0  0  0  0  0  4           0  0  0
   -3.8864   -0.7440   -2.4874 C   0  0  0  0  0  4           0  0  0
    3.9620    1.9727   -1.9452 C   0  0  2  0  0  4           0  0  0
    3.5259    1.2146   -0.6939 C   0  0  0  0  0  4           0  0  0
    3.7650    4.1165   -3.0684 C   0  0  0  0  0  4           0  0  0
    3.5433    1.2331   -3.2275 C   0  0  0  0  0  4           0  0  0
    3.3585    3.4531   -4.3817 C   0  0  0  0  0  4           0  0  0
    3.9082    2.0342   -4.4750 C   0  0  0  0  0  4           0  0  0
  1 18  1  0     0  0
  2 18  1  0     0  0
  3 18  1  0     0  0
  4 19  1  0     0  0
  5 19  1  0     0  0
  6 19  1  0     0  0
  7 12  1  0     0  0
  7 21  1  0     0  0
  8 13  1  0     0  0
  8 22  1  0     0  0
  9 20  2  0     0  0
 10 20  1  0     0  0
 10 24  1  0     0  0
 11 23  1  0     0  0
 11 25  1  0     0  0
 12 14  1  0     0  0
 12 16  2  0     0  0
 13 15  1  0     0  0
 13 17  2  0     0  0
 14 15  2  0     0  0
 14 20  1  0     0  0
 16 17  1  0     0  0
 18 21  1  0     0  0
 19 22  1  0     0  0
 23 24  1  0     0  0
 23 26  1  0     0  0
 25 27  1  0     0  0
 26 28  1  0     0  0
 27 28  1  0     0  0
M  END
> <standard_type>
pIC50

> <# Confs.>
25

> <canonical_smiles>
O=C(NCC1CCCCN1)C2=CC(OCC(F)(F)F)=CC=C2OCC(F)(F)F

> <standard_relation>
=

> <Publication_ID>
nan

> <predicted_activity_value>
nan

> <actual_activity_value>
-0.5921767573958668

> <Compound>
Flecainide

> <standard_units>
uM

> hash
699213466552616326

$$$$
20
XXILIB    08252103503D 0   0.00000     0.00000

 28 29  0     1  0            999 V2000
    1.8443   -0.9857    4.1670 F   0  0  0  0  0  1           0  0  0
    0.1960    0.0649    5.1437 F   0  0  0  0  0  1           0  0  0
    0.2948   -2.1129    5.2083 F   0  0  0  0  0  1           0  0  0
   -3.1697    2.1072   -4.1620 F   0  0  0  0  0  1           0  0  0
   -4.1449    0.2678   -4.8255 F   0  0  0  0  0  1           0  0  0
   -5.3191    1.8530   -3.8954 F   0  0  0  0  0  1           0  0  0
   -0.0026    0.0436    2.3741 O   0  0  0  0  0  2           0  0  0
   -2.6355   -0.0592   -2.5198 O   0  0  0  0  0  2           0  0  0
    2.0860   -0.9267    0.5350 O   0  0  0  0  0  2           0  0  0
    2.0873    1.0729   -0.6161 N   0  0  0  0  0  3           0  0  0
    3.3595    3.3139   -1.9143 N   0  0  0  0  0  3           0  0  0
   -0.7226    0.0000    1.2074 C   0  0  0  0  0  4           0  0  0
   -2.0852   -0.0378   -1.2635 C   0  0  0  0  0  4           0  0  0
    0.0000    0.0000    0.0000 C   0  0  0  0  0  4           0  0  0
   -0.6869   -0.0217   -1.2255 C   0  0  0  0  0  4           0  0  0
   -2.1230   -0.0136    1.1585 C   0  0  0  0  0  4           0  0  0
   -2.7997   -0.0320   -0.0661 C   0  0  0  0  0  4           0  0  0
    0.5212   -1.0329    4.4292 C   0  0  2  0  0  4           0  0  0
   -4.1316    1.2101   -3.8595 C   0  0  2  0  0  4           0  0  0
    1.4819   -0.0000    0.0000 C   0  0  0  0  0  4           0  0  0
   -0.2849   -1.1163    3.1607 C   0  0  0  0  0  4           0  0  0
   -3.9014    0.5979   -2.5037 C   0  0  0  0  0  4           0  0  0
    3.9620    1.9727   -1.9452 C   0  0  2  0  0  4           0  0  0
    3.5259    1.2146   -0.6939 C   0  0  0  0  0  4           0  0  0
    3.7650    4.1165   -3.0684 C   0  0  0  0  0  4           0  0  0
    3.5433    1.2331   -3.2275 C   0  0  0  0  0  4           0  0  0
    3.3585    3.4531   -4.3817 C   0  0  0  0  0  4           0  0  0
    3.9082    2.0342   -4.4750 C   0  0  0  0  0  4           0  0  0
  1 18  1  0     0  0
  2 18  1  0     0  0
  3 18  1  0     0  0
  4 19  1  0     0  0
  5 19  1  0     0  0
  6 19  1  0     0  0
  7 12  1  0     0  0
  7 21  1  0     0  0
  8 13  1  0     0  0
  8 22  1  0     0  0
  9 20  2  0     0  0
 10 20  1  0     0  0
 10 24  1  0     0  0
 11 23  1  0     0  0
 11 25  1  0     0  0
 12 14  1  0     0  0
 12 16  2  0     0  0
 13 15  1  0     0  0
 13 17  2  0     0  0
 14 15  2  0     0  0
 14 20  1  0     0  0
 16 17  1  0     0  0
 18 21  1  0     0  0
 19 22  1  0     0  0
 23 24  1  0     0  0
 23 26  1  0     0  0
 25 27  1  0     0  0
 26 28  1  0     0  0
 27 28  1  0     0  0
M  END
> <standard_type>
pIC50

> <# Confs.>
25

> <canonical_smiles>
O=C(NCC1CCCCN1)C2=CC(OCC(F)(F)F)=CC=C2OCC(F)(F)F

> <standard_relation>
=

> <Publication_ID>
nan

> <predicted_activity_value>
nan

> <actual_activity_value>
-0.5921767573958668

> <Compound>
Flecainide

> <standard_units>
uM

> hash
699213466552616326

$$$$
20
XXILIB    08252103503D 0   0.00000     0.00000

 28 29  0     1  0            999 V2000
    1.8443   -0.9857    4.1670 F   0  0  0  0  0  1           0  0  0
    0.1960    0.0649    5.1437 F   0  0  0  0  0  1           0  0  0
    0.2948   -2.1129    5.2083 F   0  0  0  0  0  1           0  0  0
   -3.1697    2.1072   -4.1620 F   0  0  0  0  0  1           0  0  0
   -4.1449    0.2678   -4.8255 F   0  0  0  0  0  1           0  0  0
   -5.3191    1.8530   -3.8954 F   0  0  0  0  0  1           0  0  0
   -0.0026    0.0436    2.3741 O   0  0  0  0  0  2           0  0  0
   -2.6355   -0.0592   -2.5198 O   0  0  0  0  0  2           0  0  0
    2.0860   -0.9267    0.5350 O   0  0  0  0  0  2           0  0  0
    2.0873    1.0729   -0.6161 N   0  0  0  0  0  3           0  0  0
    3.4991    1.2132   -3.1258 N   0  0  0  0  0  3           0  0  0
   -0.7226    0.0000    1.2074 C   0  0  0  0  0  4           0  0  0
   -2.0852   -0.0378   -1.2635 C   0  0  0  0  0  4           0  0  0
    0.0000    0.0000    0.0000 C   0  0  0  0  0  4           0  0  0
   -0.6869   -0.0217   -1.2255 C   0  0  0  0  0  4           0  0  0
   -2.1230   -0.0136    1.1585 C   0  0  0  0  0  4           0  0  0
   -2.7997   -0.0320   -0.0661 C   0  0  0  0  0  4           0  0  0
    0.5212   -1.0329    4.4292 C   0  0  2  0  0  4           0  0  0
   -4.1316    1.2101   -3.8595 C   0  0  2  0  0  4           0  0  0
    1.4819   -0.0000    0.0000 C   0  0  0  0  0  4           0  0  0
   -0.2849   -1.1163    3.1607 C   0  0  0  0  0  4           0  0  0
   -3.9014    0.5979   -2.5037 C   0  0  0  0  0  4           0  0  0
    4.1003    0.5652   -1.9506 C   0  0  2  0  0  4           0  0  0
    3.5259    1.2146   -0.6939 C   0  0  0  0  0  4           0  0  0
    3.9772    0.6220   -4.3756 C   0  0  0  0  0  4           0  0  0
    5.6330    0.6895   -1.9991 C   0  0  0  0  0  4           0  0  0
    5.4932    0.7369   -4.5037 C   0  0  0  0  0  4           0  0  0
    6.1960    0.1210   -3.2996 C   0  0  0  0  0  4           0  0  0
  1 18  1  0     0  0
  2 18  1  0     0  0
  3 18  1  0     0  0
  4 19  1  0     0  0
  5 19  1  0     0  0
  6 19  1  0     0  0
  7 12  1  0     0  0
  7 21  1  0     0  0
  8 13  1  0     0  0
  8 22  1  0     0  0
  9 20  2  0     0  0
 10 20  1  0     0  0
 10 24  1  0     0  0
 11 23  1  0     0  0
 11 25  1  0     0  0
 12 14  1  0     0  0
 12 16  2  0     0  0
 13 15  1  0     0  0
 13 17  2  0     0  0
 14 15  2  0     0  0
 14 20  1  0     0  0
 16 17  1  0     0  0
 18 21  1  0     0  0
 19 22  1  0     0  0
 23 24  1  0     0  0
 23 26  1  0     0  0
 25 27  1  0     0  0
 26 28  1  0     0  0
 27 28  1  0     0  0
M  END
> <standard_type>
pIC50

> <# Confs.>
25

> <canonical_smiles>
O=C(NCC1CCCCN1)C2=CC(OCC(F)(F)F)=CC=C2OCC(F)(F)F

> <standard_relation>
=

> <Publication_ID>
nan

> <predicted_activity_value>
nan

> <actual_activity_value>
-0.5921767573958668

> <Compound>
Flecainide

> <standard_units>
uM

> hash
699213466552616326

$$$$
20
XXILIB    08252103503D 0   0.00000     0.00000

 28 29  0     1  0            999 V2000
    1.8443   -0.9857    4.1670 F   0  0  0  0  0  1           0  0  0
    0.1960    0.0649    5.1437 F   0  0  0  0  0  1           0  0  0
    0.2948   -2.1129    5.2083 F   0  0  0  0  0  1           0  0  0
   -3.1697    2.1072   -4.1620 F   0  0  0  0  0  1           0  0  0
   -4.1449    0.2678   -4.8255 F   0  0  0  0  0  1           0  0  0
   -5.3191    1.8530   -3.8954 F   0  0  0  0  0  1           0  0  0
   -0.0026    0.0436    2.3741 O   0  0  0  0  0  2           0  0  0
   -2.6355   -0.0592   -2.5198 O   0  0  0  0  0  2           0  0  0
    2.0860   -0.5350   -0.9267 O   0  0  0  0  0  2           0  0  0
    2.0873    0.6161    1.0729 N   0  0  0  0  0  3           0  0  0
    5.5587    1.9507    0.7541 N   0  0  0  0  0  3           0  0  0
   -0.7226    0.0000    1.2074 C   0  0  0  0  0  4           0  0  0
   -2.0852   -0.0378   -1.2635 C   0  0  0  0  0  4           0  0  0
    0.0000    0.0000    0.0000 C   0  0  0  0  0  4           0  0  0
   -0.6869   -0.0217   -1.2255 C   0  0  0  0  0  4           0  0  0
   -2.1230   -0.0136    1.1585 C   0  0  0  0  0  4           0  0  0
   -2.7997   -0.0320   -0.0661 C   0  0  0  0  0  4           0  0  0
    0.5212   -1.0329    4.4292 C   0  0  2  0  0  4           0  0  0
   -4.1316    1.2101   -3.8595 C   0  0  2  0  0  4           0  0  0
    1.4819   -0.0000   -0.0000 C   0  0  0  0  0  4           0  0  0
   -0.2849   -1.1163    3.1607 C   0  0  0  0  0  4           0  0  0
   -3.9014    0.5979   -2.5037 C   0  0  0  0  0  4           0  0  0
    4.1003    1.9506    0.5652 C   0  0  2  0  0  4           0  0  0
    3.5259    0.6939    1.2146 C   0  0  0  0  0  4           0  0  0
    6.1865    3.1113    0.1222 C   0  0  0  0  0  4           0  0  0
    3.4879    3.2269    1.1672 C   0  0  0  0  0  4           0  0  0
    5.6428    4.4197    0.6901 C   0  0  0  0  0  4           0  0  0
    4.1241    4.4815    0.5737 C   0  0  0  0  0  4           0  0  0
  1 18  1  0     0  0
  2 18  1  0     0  0
  3 18  1  0     0  0
  4 19  1  0     0  0
  5 19  1  0     0  0
  6 19  1  0     0  0
  7 12  1  0     0  0
  7 21  1  0     0  0
  8 13  1  0     0  0
  8 22  1  0     0  0
  9 20  2  0     0  0
 10 20  1  0     0  0
 10 24  1  0     0  0
 11 23  1  0     0  0
 11 25  1  0     0  0
 12 14  1  0     0  0
 12 16  2  0     0  0
 13 15  1  0     0  0
 13 17  2  0     0  0
 14 15  2  0     0  0
 14 20  1  0     0  0
 16 17  1  0     0  0
 18 21  1  0     0  0
 19 22  1  0     0  0
 23 24  1  0     0  0
 23 26  1  0     0  0
 25 27  1  0     0  0
 26 28  1  0     0  0
 27 28  1  0     0  0
M  END
> <standard_type>
pIC50

> <# Confs.>
25

> <canonical_smiles>
O=C(NCC1CCCCN1)C2=CC(OCC(F)(F)F)=CC=C2OCC(F)(F)F

> <standard_relation>
=

> <Publication_ID>
nan

> <predicted_activity_value>
nan

> <actual_activity_value>
-0.5921767573958668

> <Compound>
Flecainide

> <standard_units>
uM

> hash
699213466552616326

$$$$
20
XXILIB    08252103503D 0   0.00000     0.00000

 28 29  0     1  0            999 V2000
    1.8443   -0.9857    4.1670 F   0  0  0  0  0  1           0  0  0
    0.1960    0.0649    5.1437 F   0  0  0  0  0  1           0  0  0
    0.2948   -2.1129    5.2083 F   0  0  0  0  0  1           0  0  0
   -4.1235   -0.4780   -4.8190 F   0  0  0  0  0  1           0  0  0
   -3.1273   -2.2857   -4.1017 F   0  0  0  0  0  1           0  0  0
   -5.2814   -2.0529   -3.8522 F   0  0  0  0  0  1           0  0  0
   -0.0026    0.0436    2.3741 O   0  0  0  0  0  2           0  0  0
   -2.6355   -0.0592   -2.5198 O   0  0  0  0  0  2           0  0  0
    2.0860   -0.5350   -0.9267 O   0  0  0  0  0  2           0  0  0
    2.0873    0.6161    1.0729 N   0  0  0  0  0  3           0  0  0
    5.5587    1.9507    0.7541 N   0  0  0  0  0  3           0  0  0
   -0.7226   -0.0000    1.2074 C   0  0  0  0  0  4           0  0  0
   -2.0852   -0.0378   -1.2635 C   0  0  0  0  0  4           0  0  0
    0.0000    0.0000    0.0000 C   0  0  0  0  0  4           0  0  0
   -0.6869   -0.0217   -1.2255 C   0  0  0  0  0  4           0  0  0
   -2.1230   -0.0136    1.1585 C   0  0  0  0  0  4           0  0  0
   -2.7997   -0.0320   -0.0661 C   0  0  0  0  0  4           0  0  0
    0.5212   -1.0329    4.4292 C   0  0  2  0  0  4           0  0  0
   -4.1025   -1.3939   -3.8279 C   0  0  2  0  0  4           0  0  0
    1.4819   -0.0000   -0.0000 C   0  0  0  0  0  4           0  0  0
   -0.2849   -1.1163    3.1607 C   0  0  0  0  0  4           0  0  0
   -3.8864   -0.7440   -2.4874 C   0  0  0  0  0  4           0  0  0
    4.1003    1.9506    0.5652 C   0  0  2  0  0  4           0  0  0
    3.5259    0.6939    1.2146 C   0  0  0  0  0  4           0  0  0
    6.1865    3.1113    0.1222 C   0  0  0  0  0  4           0  0  0
    3.4879    3.2269    1.1672 C   0  0  0  0  0  4           0  0  0
    5.6428    4.4197    0.6901 C   0  0  0  0  0  4           0  0  0
    4.1241    4.4815    0.5737 C   0  0  0  0  0  4           0  0  0
  1 18  1  0     0  0
  2 18  1  0     0  0
  3 18  1  0     0  0
  4 19  1  0     0  0
  5 19  1  0     0  0
  6 19  1  0     0  0
  7 12  1  0     0  0
  7 21  1  0     0  0
  8 13  1  0     0  0
  8 22  1  0     0  0
  9 20  2  0     0  0
 10 20  1  0     0  0
 10 24  1  0     0  0
 11 23  1  0     0  0
 11 25  1  0     0  0
 12 14  1  0     0  0
 12 16  2  0     0  0
 13 15  1  0     0  0
 13 17  2  0     0  0
 14 15  2  0     0  0
 14 20  1  0     0  0
 16 17  1  0     0  0
 18 21  1  0     0  0
 19 22  1  0     0  0
 23 24  1  0     0  0
 23 26  1  0     0  0
 25 27  1  0     0  0
 26 28  1  0     0  0
 27 28  1  0     0  0
M  END
> <standard_type>
pIC50

> <# Confs.>
25

> <canonical_smiles>
O=C(NCC1CCCCN1)C2=CC(OCC(F)(F)F)=CC=C2OCC(F)(F)F

> <standard_relation>
=

> <Publication_ID>
nan

> <predicted_activity_value>
nan

> <actual_activity_value>
-0.5921767573958668

> <Compound>
Flecainide

> <standard_units>
uM

> hash
699213466552616326

$$$$
20
XXILIB    08252103503D 0   0.00000     0.00000

 28 29  0     1  0            999 V2000
    0.2045    0.1302    5.1372 F   0  0  0  0  0  1           0  0  0
    1.7749    1.2631    4.1246 F   0  0  0  0  0  1           0  0  0
    0.1491    2.3103    5.1329 F   0  0  0  0  0  1           0  0  0
   -4.1235   -0.4780   -4.8190 F   0  0  0  0  0  1           0  0  0
   -3.1273   -2.2857   -4.1017 F   0  0  0  0  0  1           0  0  0
   -5.2814   -2.0529   -3.8522 F   0  0  0  0  0  1           0  0  0
   -0.0026    0.0436    2.3741 O   0  0  0  0  0  2           0  0  0
   -2.6355   -0.0592   -2.5198 O   0  0  0  0  0  2           0  0  0
    2.0860    0.9267    0.5350 O   0  0  0  0  0  2           0  0  0
    2.0873   -1.0700   -0.6211 N   0  0  0  0  0  3           0  0  0
    3.4991   -3.3136    0.5122 N   0  0  0  0  0  3           0  0  0
   -0.7226   -0.0000    1.2074 C   0  0  0  0  0  4           0  0  0
   -2.0852   -0.0378   -1.2635 C   0  0  0  0  0  4           0  0  0
    0.0000    0.0000    0.0000 C   0  0  0  0  0  4           0  0  0
   -0.6869   -0.0217   -1.2255 C   0  0  0  0  0  4           0  0  0
   -2.1230   -0.0136    1.1585 C   0  0  0  0  0  4           0  0  0
   -2.7997   -0.0320   -0.0661 C   0  0  0  0  0  4           0  0  0
    0.4518    1.2251    4.3877 C   0  0  2  0  0  4           0  0  0
   -4.1025   -1.3939   -3.8279 C   0  0  2  0  0  4           0  0  0
    1.4819    0.0000    0.0000 C   0  0  0  0  0  4           0  0  0
   -0.3565    1.2121    3.1178 C   0  0  0  0  0  4           0  0  0
   -3.8864   -0.7440   -2.4874 C   0  0  0  0  0  4           0  0  0
    4.1003   -1.9718    0.4858 C   0  0  2  0  0  4           0  0  0
    3.5259   -1.2082   -0.7049 C   0  0  0  0  0  4           0  0  0
    3.9772   -4.1004    1.6491 C   0  0  0  0  0  4           0  0  0
    5.6330   -2.0761    0.4024 C   0  0  0  0  0  4           0  0  0
    5.4932   -4.2688    1.6137 C   0  0  0  0  0  4           0  0  0
    6.1960   -2.9180    1.5450 C   0  0  0  0  0  4           0  0  0
  1 18  1  0     0  0
  2 18  1  0     0  0
  3 18  1  0     0  0
  4 19  1  0     0  0
  5 19  1  0     0  0
  6 19  1  0     0  0
  7 12  1  0     0  0
  7 21  1  0     0  0
  8 13  1  0     0  0
  8 22  1  0     0  0
  9 20  2  0     0  0
 10 20  1  0     0  0
 10 24  1  0     0  0
 11 23  1  0     0  0
 11 25  1  0     0  0
 12 14  1  0     0  0
 12 16  2  0     0  0
 13 15  1  0     0  0
 13 17  2  0     0  0
 14 15  2  0     0  0
 14 20  1  0     0  0
 16 17  1  0     0  0
 18 21  1  0     0  0
 19 22  1  0     0  0
 23 24  1  0     0  0
 23 26  1  0     0  0
 25 27  1  0     0  0
 26 28  1  0     0  0
 27 28  1  0     0  0
M  END
> <standard_type>
pIC50

> <# Confs.>
25

> <canonical_smiles>
O=C(NCC1CCCCN1)C2=CC(OCC(F)(F)F)=CC=C2OCC(F)(F)F

> <standard_relation>
=

> <Publication_ID>
nan

> <predicted_activity_value>
nan

> <actual_activity_value>
-0.5921767573958668

> <Compound>
Flecainide

> <standard_units>
uM

> hash
699213466552616326

$$$$
20
XXILIB    08252103503D 0   0.00000     0.00000

 28 29  0     1  0            999 V2000
    0.2045    0.1302    5.1372 F   0  0  0  0  0  1           0  0  0
    1.7749    1.2631    4.1246 F   0  0  0  0  0  1           0  0  0
    0.1491    2.3103    5.1329 F   0  0  0  0  0  1           0  0  0
   -3.1697    2.1072   -4.1620 F   0  0  0  0  0  1           0  0  0
   -4.1449    0.2678   -4.8255 F   0  0  0  0  0  1           0  0  0
   -5.3191    1.8530   -3.8954 F   0  0  0  0  0  1           0  0  0
   -0.0026    0.0436    2.3741 O   0  0  0  0  0  2           0  0  0
   -2.6355   -0.0592   -2.5198 O   0  0  0  0  0  2           0  0  0
    2.0860    0.9267    0.5350 O   0  0  0  0  0  2           0  0  0
    2.0873   -1.0700   -0.6211 N   0  0  0  0  0  3           0  0  0
    3.4991   -3.3136    0.5122 N   0  0  0  0  0  3           0  0  0
   -0.7226    0.0000    1.2074 C   0  0  0  0  0  4           0  0  0
   -2.0852   -0.0378   -1.2635 C   0  0  0  0  0  4           0  0  0
    0.0000    0.0000    0.0000 C   0  0  0  0  0  4           0  0  0
   -0.6869   -0.0217   -1.2255 C   0  0  0  0  0  4           0  0  0
   -2.1230   -0.0136    1.1585 C   0  0  0  0  0  4           0  0  0
   -2.7997   -0.0320   -0.0661 C   0  0  0  0  0  4           0  0  0
    0.4518    1.2251    4.3877 C   0  0  2  0  0  4           0  0  0
   -4.1316    1.2101   -3.8595 C   0  0  2  0  0  4           0  0  0
    1.4819    0.0000    0.0000 C   0  0  0  0  0  4           0  0  0
   -0.3565    1.2121    3.1178 C   0  0  0  0  0  4           0  0  0
   -3.9014    0.5979   -2.5037 C   0  0  0  0  0  4           0  0  0
    4.1003   -1.9718    0.4858 C   0  0  2  0  0  4           0  0  0
    3.5259   -1.2082   -0.7049 C   0  0  0  0  0  4           0  0  0
    3.9772   -4.1004    1.6491 C   0  0  0  0  0  4           0  0  0
    5.6330   -2.0761    0.4024 C   0  0  0  0  0  4           0  0  0
    5.4932   -4.2688    1.6137 C   0  0  0  0  0  4           0  0  0
    6.1960   -2.9180    1.5450 C   0  0  0  0  0  4           0  0  0
  1 18  1  0     0  0
  2 18  1  0     0  0
  3 18  1  0     0  0
  4 19  1  0     0  0
  5 19  1  0     0  0
  6 19  1  0     0  0
  7 12  1  0     0  0
  7 21  1  0     0  0
  8 13  1  0     0  0
  8 22  1  0     0  0
  9 20  2  0     0  0
 10 20  1  0     0  0
 10 24  1  0     0  0
 11 23  1  0     0  0
 11 25  1  0     0  0
 12 14  1  0     0  0
 12 16  2  0     0  0
 13 15  1  0     0  0
 13 17  2  0     0  0
 14 15  2  0     0  0
 14 20  1  0     0  0
 16 17  1  0     0  0
 18 21  1  0     0  0
 19 22  1  0     0  0
 23 24  1  0     0  0
 23 26  1  0     0  0
 25 27  1  0     0  0
 26 28  1  0     0  0
 27 28  1  0     0  0
M  END
> <standard_type>
pIC50

> <# Confs.>
25

> <canonical_smiles>
O=C(NCC1CCCCN1)C2=CC(OCC(F)(F)F)=CC=C2OCC(F)(F)F

> <standard_relation>
=

> <Publication_ID>
nan

> <predicted_activity_value>
nan

> <actual_activity_value>
-0.5921767573958668

> <Compound>
Flecainide

> <standard_units>
uM

> hash
699213466552616326

$$$$
20
XXILIB    08252103503D 0   0.00000     0.00000

 28 29  0     1  0            999 V2000
    1.8443   -0.9857    4.1670 F   0  0  0  0  0  1           0  0  0
    0.1960    0.0649    5.1437 F   0  0  0  0  0  1           0  0  0
    0.2948   -2.1129    5.2083 F   0  0  0  0  0  1           0  0  0
   -4.1235   -0.4780   -4.8190 F   0  0  0  0  0  1           0  0  0
   -3.1273   -2.2857   -4.1017 F   0  0  0  0  0  1           0  0  0
   -5.2814   -2.0529   -3.8522 F   0  0  0  0  0  1           0  0  0
   -0.0026    0.0436    2.3741 O   0  0  0  0  0  2           0  0  0
   -2.6355   -0.0592   -2.5198 O   0  0  0  0  0  2           0  0  0
    2.0860   -0.9267    0.5350 O   0  0  0  0  0  2           0  0  0
    2.0873    1.0729   -0.6161 N   0  0  0  0  0  3           0  0  0
    3.3581    3.3210   -1.8979 N   0  0  0  0  0  3           0  0  0
   -0.7226   -0.0000    1.2074 C   0  0  0  0  0  4           0  0  0
   -2.0852   -0.0378   -1.2635 C   0  0  0  0  0  4           0  0  0
    0.0000    0.0000    0.0000 C   0  0  0  0  0  4           0  0  0
   -0.6869   -0.0217   -1.2255 C   0  0  0  0  0  4           0  0  0
   -2.1230   -0.0136    1.1585 C   0  0  0  0  0  4           0  0  0
   -2.7997   -0.0320   -0.0661 C   0  0  0  0  0  4           0  0  0
    0.5212   -1.0329    4.4292 C   0  0  2  0  0  4           0  0  0
   -4.1025   -1.3939   -3.8279 C   0  0  2  0  0  4           0  0  0
    1.4819   -0.0000    0.0000 C   0  0  0  0  0  4           0  0  0
   -0.2849   -1.1163    3.1607 C   0  0  0  0  0  4           0  0  0
   -3.8864   -0.7440   -2.4874 C   0  0  0  0  0  4           0  0  0
    3.9589    2.6783   -0.7195 C   0  0  2  0  0  4           0  0  0
    3.5259    1.2146   -0.6939 C   0  0  0  0  0  4           0  0  0
    3.7535    4.7249   -2.0113 C   0  0  0  0  0  4           0  0  0
    3.5347    3.4143    0.5632 C   0  0  0  0  0  4           0  0  0
    3.3361    5.5238   -0.7803 C   0  0  0  0  0  4           0  0  0
    3.8877    4.8982    0.4955 C   0  0  0  0  0  4           0  0  0
  1 18  1  0     0  0
  2 18  1  0     0  0
  3 18  1  0     0  0
  4 19  1  0     0  0
  5 19  1  0     0  0
  6 19  1  0     0  0
  7 12  1  0     0  0
  7 21  1  0     0  0
  8 13  1  0     0  0
  8 22  1  0     0  0
  9 20  2  0     0  0
 10 20  1  0     0  0
 10 24  1  0     0  0
 11 23  1  0     0  0
 11 25  1  0     0  0
 12 14  1  0     0  0
 12 16  2  0     0  0
 13 15  1  0     0  0
 13 17  2  0     0  0
 14 15  2  0     0  0
 14 20  1  0     0  0
 16 17  1  0     0  0
 18 21  1  0     0  0
 19 22  1  0     0  0
 23 24  1  0     0  0
 23 26  1  0     0  0
 25 27  1  0     0  0
 26 28  1  0     0  0
 27 28  1  0     0  0
M  END
> <standard_type>
pIC50

> <# Confs.>
25

> <canonical_smiles>
O=C(NCC1CCCCN1)C2=CC(OCC(F)(F)F)=CC=C2OCC(F)(F)F

> <standard_relation>
=

> <Publication_ID>
nan

> <predicted_activity_value>
nan

> <actual_activity_value>
-0.5921767573958668

> <Compound>
Flecainide

> <standard_units>
uM

> hash
699213466552616326

$$$$
23
XXILIB    08252103503D 0   0.00000     0.00000

 26 29  0     1  0            999 V2000
   -2.9542   -0.0044    4.7148 F   0  0  0  0  0  1           0  0  0
   -4.0378   -0.2097   -0.3020 O   0  0  0  0  0  2           0  0  0
   -1.9029    0.3154   -3.7741 O   0  0  0  0  0  2           0  0  0
   -3.9151    0.1436   -2.7409 O   0  0  0  0  0  2           0  0  0
    0.0000    0.0000    0.0000 N   0  0  1  0  0  3           0  0  0
   -0.1541    0.0720    4.9054 N   0  0  1  0  0  3           0  0  0
    1.0899   -0.0249    7.4777 N   0  0  0  0  0  3           0  0  0
   -2.2189    0.0016    3.5893 C   0  0  0  0  0  4           0  0  0
   -2.8274   -0.0619   -0.1831 C   0  0  0  0  0  4           0  0  0
   -0.7524   -0.0000    1.2103 C   0  0  0  0  0  4           0  0  0
   -0.6505    0.0987   -1.2112 C   0  0  0  0  0  4           0  0  0
   -0.8195    0.0370    3.6906 C   0  0  0  0  0  4           0  0  0
   -2.1632   -0.0285    1.1626 C   0  0  0  0  0  4           0  0  0
   -2.9096   -0.0243    2.3598 C   0  0  0  0  0  4           0  0  0
   -1.9759    0.0859   -1.4046 C   0  0  0  0  0  4           0  0  0
   -0.1180    0.0380    2.4712 C   0  0  0  0  0  4           0  0  0
   -2.5613    0.1936   -2.7501 C   0  0  0  0  0  4           0  0  0
    1.4648   -0.0000    0.0000 C   0  0  2  0  0  4           0  0  0
    0.2343    1.1119    7.1192 C   0  0  1  0  0  4           0  0  0
   -0.8017    0.7165    6.0559 C   0  0  0  0  0  4           0  0  0
    0.8386   -0.9671    5.2014 C   0  0  0  0  0  4           0  0  0
    1.7998   -0.5055    6.2943 C   0  0  0  0  0  4           0  0  0
   -4.4149   -0.0456    2.3980 C   0  0  0  0  0  4           0  0  0
    2.2636   -0.6393   -1.1073 C   0  0  0  0  0  4           0  0  0
    2.2644   -1.2508    0.2607 C   0  0  0  0  0  4           0  0  0
   -0.4573    1.6267    8.3808 C   0  0  0  0  0  4           0  0  0
  1  8  1  0     0  0
  2  9  2  0     0  0
  3 17  2  0     0  0
  4 17  1  0     0  0
  5 10  1  0     0  0
  5 11  1  0     0  0
  5 18  1  0     0  0
  6 12  1  0     0  0
  6 20  1  0     0  0
  6 21  1  0     0  0
  7 19  1  0     0  0
  7 22  1  0     0  0
  8 12  1  0     0  0
  8 14  2  0     0  0
  9 13  1  0     0  0
  9 15  1  0     0  0
 10 13  2  0     0  0
 10 16  1  0     0  0
 11 15  2  0     0  0
 12 16  2  0     0  0
 13 14  1  0     0  0
 14 23  1  0     0  0
 15 17  1  0     0  0
 18 24  1  0     0  0
 18 25  1  0     0  0
 19 20  1  0     0  0
 19 26  1  0     0  0
 21 22  1  0     0  0
 24 25  1  0     0  0
M  END
> <standard_type>
pIC50

> <# Confs.>
25

> <canonical_smiles>
FC1=C(C)C2=C(N(C3CC3)C=C(C(O)=O)C2=O)C=C1N4CC(C)NCC4

> <standard_relation>
=

> <Publication_ID>
nan

> <predicted_activity_value>
nan

> <actual_activity_value>
-1.6989700043360187

> <Compound>
Grepafloxacin 

> <standard_units>
uM

> hash
8674525557719610595

$$$$
23
XXILIB    08252103503D 0   0.00000     0.00000

 26 29  0     1  0            999 V2000
   -2.9542   -0.0044    4.7148 F   0  0  0  0  0  1           0  0  0
   -4.0378   -0.2097   -0.3020 O   0  0  0  0  0  2           0  0  0
   -1.9029    0.3154   -3.7741 O   0  0  0  0  0  2           0  0  0
   -3.9151    0.1436   -2.7409 O   0  0  0  0  0  2           0  0  0
    0.0000    0.0000    0.0000 N   0  0  1  0  0  3           0  0  0
   -0.1542    0.0720    4.9053 N   0  0  1  0  0  3           0  0  0
    1.1087    0.2769    7.4616 N   0  0  0  0  0  3           0  0  0
   -2.2189    0.0016    3.5893 C   0  0  0  0  0  4           0  0  0
   -2.8274   -0.0619   -0.1831 C   0  0  0  0  0  4           0  0  0
   -0.7524   -0.0000    1.2103 C   0  0  0  0  0  4           0  0  0
   -0.6505    0.0987   -1.2112 C   0  0  0  0  0  4           0  0  0
   -0.8195    0.0370    3.6906 C   0  0  0  0  0  4           0  0  0
   -2.1632   -0.0285    1.1626 C   0  0  0  0  0  4           0  0  0
   -2.9096   -0.0243    2.3598 C   0  0  0  0  0  4           0  0  0
   -1.9759    0.0859   -1.4046 C   0  0  0  0  0  4           0  0  0
   -0.1180    0.0380    2.4712 C   0  0  0  0  0  4           0  0  0
   -2.5613    0.1936   -2.7501 C   0  0  0  0  0  4           0  0  0
    1.4648   -0.0000    0.0000 C   0  0  2  0  0  4           0  0  0
    0.2891   -0.8972    7.1405 C   0  0  1  0  0  4           0  0  0
   -0.7690   -0.5663    6.0767 C   0  0  0  0  0  4           0  0  0
    0.7987    1.1561    5.1680 C   0  0  0  0  0  4           0  0  0
    1.7892    0.7514    6.2579 C   0  0  0  0  0  4           0  0  0
   -4.4149   -0.0456    2.3980 C   0  0  0  0  0  4           0  0  0
    2.2636   -0.6393   -1.1073 C   0  0  0  0  0  4           0  0  0
    2.2644   -1.2508    0.2607 C   0  0  0  0  0  4           0  0  0
   -0.3747   -1.4048    8.4196 C   0  0  0  0  0  4           0  0  0
  1  8  1  0     0  0
  2  9  2  0     0  0
  3 17  2  0     0  0
  4 17  1  0     0  0
  5 10  1  0     0  0
  5 11  1  0     0  0
  5 18  1  0     0  0
  6 12  1  0     0  0
  6 20  1  0     0  0
  6 21  1  0     0  0
  7 19  1  0     0  0
  7 22  1  0     0  0
  8 12  1  0     0  0
  8 14  2  0     0  0
  9 13  1  0     0  0
  9 15  1  0     0  0
 10 13  2  0     0  0
 10 16  1  0     0  0
 11 15  2  0     0  0
 12 16  2  0     0  0
 13 14  1  0     0  0
 14 23  1  0     0  0
 15 17  1  0     0  0
 18 24  1  0     0  0
 18 25  1  0     0  0
 19 20  1  0     0  0
 19 26  1  0     0  0
 21 22  1  0     0  0
 24 25  1  0     0  0
M  END
> <standard_type>
pIC50

> <# Confs.>
25

> <canonical_smiles>
FC1=C(C)C2=C(N(C3CC3)C=C(C(O)=O)C2=O)C=C1N4CC(C)NCC4

> <standard_relation>
=

> <Publication_ID>
nan

> <predicted_activity_value>
nan

> <actual_activity_value>
-1.6989700043360187

> <Compound>
Grepafloxacin 

> <standard_units>
uM

> hash
8674525557719610595

$$$$
23
XXILIB    08252103503D 0   0.00000     0.00000

 26 29  0     1  0            999 V2000
   -2.9542   -0.0044    4.7148 F   0  0  0  0  0  1           0  0  0
   -4.0378   -0.2097   -0.3020 O   0  0  0  0  0  2           0  0  0
   -1.9029    0.3154   -3.7741 O   0  0  0  0  0  2           0  0  0
   -3.9151    0.1436   -2.7409 O   0  0  0  0  0  2           0  0  0
    0.0000    0.0000    0.0000 N   0  0  1  0  0  3           0  0  0
   -0.1541    0.0720    4.9054 N   0  0  1  0  0  3           0  0  0
    1.0899   -0.0249    7.4777 N   0  0  0  0  0  3           0  0  0
   -2.2189    0.0016    3.5893 C   0  0  0  0  0  4           0  0  0
   -2.8274   -0.0619   -0.1831 C   0  0  0  0  0  4           0  0  0
   -0.7524   -0.0000    1.2103 C   0  0  0  0  0  4           0  0  0
   -0.6505    0.0987   -1.2112 C   0  0  0  0  0  4           0  0  0
   -0.8195    0.0370    3.6906 C   0  0  0  0  0  4           0  0  0
   -2.1632   -0.0285    1.1626 C   0  0  0  0  0  4           0  0  0
   -2.9096   -0.0243    2.3598 C   0  0  0  0  0  4           0  0  0
   -1.9759    0.0859   -1.4046 C   0  0  0  0  0  4           0  0  0
   -0.1180    0.0380    2.4712 C   0  0  0  0  0  4           0  0  0
   -2.5613    0.1936   -2.7501 C   0  0  0  0  0  4           0  0  0
    1.4648    0.0000   -0.0000 C   0  0  2  0  0  4           0  0  0
    0.2343    1.1119    7.1192 C   0  0  1  0  0  4           0  0  0
   -0.8017    0.7165    6.0559 C   0  0  0  0  0  4           0  0  0
    0.8386   -0.9671    5.2014 C   0  0  0  0  0  4           0  0  0
    1.7998   -0.5055    6.2943 C   0  0  0  0  0  4           0  0  0
   -4.4149   -0.0456    2.3980 C   0  0  0  0  0  4           0  0  0
    2.2636    1.1073    0.6393 C   0  0  0  0  0  4           0  0  0
    2.2644    0.9529   -0.8512 C   0  0  0  0  0  4           0  0  0
   -0.4573    1.6267    8.3808 C   0  0  0  0  0  4           0  0  0
  1  8  1  0     0  0
  2  9  2  0     0  0
  3 17  2  0     0  0
  4 17  1  0     0  0
  5 10  1  0     0  0
  5 11  1  0     0  0
  5 18  1  0     0  0
  6 12  1  0     0  0
  6 20  1  0     0  0
  6 21  1  0     0  0
  7 19  1  0     0  0
  7 22  1  0     0  0
  8 12  1  0     0  0
  8 14  2  0     0  0
  9 13  1  0     0  0
  9 15  1  0     0  0
 10 13  2  0     0  0
 10 16  1  0     0  0
 11 15  2  0     0  0
 12 16  2  0     0  0
 13 14  1  0     0  0
 14 23  1  0     0  0
 15 17  1  0     0  0
 18 24  1  0     0  0
 18 25  1  0     0  0
 19 20  1  0     0  0
 19 26  1  0     0  0
 21 22  1  0     0  0
 24 25  1  0     0  0
M  END
> <standard_type>
pIC50

> <# Confs.>
25

> <canonical_smiles>
FC1=C(C)C2=C(N(C3CC3)C=C(C(O)=O)C2=O)C=C1N4CC(C)NCC4

> <standard_relation>
=

> <Publication_ID>
nan

> <predicted_activity_value>
nan

> <actual_activity_value>
-1.6989700043360187

> <Compound>
Grepafloxacin 

> <standard_units>
uM

> hash
8674525557719610595

$$$$
23
XXILIB    08252103503D 0   0.00000     0.00000

 26 29  0     1  0            999 V2000
   -2.9542   -0.0044    4.7148 F   0  0  0  0  0  1           0  0  0
   -4.0378   -0.2097   -0.3020 O   0  0  0  0  0  2           0  0  0
   -1.9029    0.3154   -3.7741 O   0  0  0  0  0  2           0  0  0
   -3.9151    0.1436   -2.7409 O   0  0  0  0  0  2           0  0  0
    0.0000    0.0000    0.0000 N   0  0  1  0  0  3           0  0  0
   -0.1542    0.0720    4.9053 N   0  0  1  0  0  3           0  0  0
    1.1087    0.2769    7.4616 N   0  0  0  0  0  3           0  0  0
   -2.2189    0.0016    3.5893 C   0  0  0  0  0  4           0  0  0
   -2.8274   -0.0619   -0.1831 C   0  0  0  0  0  4           0  0  0
   -0.7524   -0.0000    1.2103 C   0  0  0  0  0  4           0  0  0
   -0.6505    0.0987   -1.2112 C   0  0  0  0  0  4           0  0  0
   -0.8195    0.0370    3.6906 C   0  0  0  0  0  4           0  0  0
   -2.1632   -0.0285    1.1626 C   0  0  0  0  0  4           0  0  0
   -2.9096   -0.0243    2.3598 C   0  0  0  0  0  4           0  0  0
   -1.9759    0.0859   -1.4046 C   0  0  0  0  0  4           0  0  0
   -0.1180    0.0380    2.4712 C   0  0  0  0  0  4           0  0  0
   -2.5613    0.1936   -2.7501 C   0  0  0  0  0  4           0  0  0
    1.4648    0.0000   -0.0000 C   0  0  2  0  0  4           0  0  0
    0.2891   -0.8972    7.1405 C   0  0  1  0  0  4           0  0  0
   -0.7690   -0.5663    6.0767 C   0  0  0  0  0  4           0  0  0
    0.7987    1.1561    5.1680 C   0  0  0  0  0  4           0  0  0
    1.7892    0.7514    6.2579 C   0  0  0  0  0  4           0  0  0
   -4.4149   -0.0456    2.3980 C   0  0  0  0  0  4           0  0  0
    2.2636    1.1073    0.6393 C   0  0  0  0  0  4           0  0  0
    2.2644    0.9529   -0.8512 C   0  0  0  0  0  4           0  0  0
   -0.3747   -1.4048    8.4196 C   0  0  0  0  0  4           0  0  0
  1  8  1  0     0  0
  2  9  2  0     0  0
  3 17  2  0     0  0
  4 17  1  0     0  0
  5 10  1  0     0  0
  5 11  1  0     0  0
  5 18  1  0     0  0
  6 12  1  0     0  0
  6 20  1  0     0  0
  6 21  1  0     0  0
  7 19  1  0     0  0
  7 22  1  0     0  0
  8 12  1  0     0  0
  8 14  2  0     0  0
  9 13  1  0     0  0
  9 15  1  0     0  0
 10 13  2  0     0  0
 10 16  1  0     0  0
 11 15  2  0     0  0
 12 16  2  0     0  0
 13 14  1  0     0  0
 14 23  1  0     0  0
 15 17  1  0     0  0
 18 24  1  0     0  0
 18 25  1  0     0  0
 19 20  1  0     0  0
 19 26  1  0     0  0
 21 22  1  0     0  0
 24 25  1  0     0  0
M  END
> <standard_type>
pIC50

> <# Confs.>
25

> <canonical_smiles>
FC1=C(C)C2=C(N(C3CC3)C=C(C(O)=O)C2=O)C=C1N4CC(C)NCC4

> <standard_relation>
=

> <Publication_ID>
nan

> <predicted_activity_value>
nan

> <actual_activity_value>
-1.6989700043360187

> <Compound>
Grepafloxacin 

> <standard_units>
uM

> hash
8674525557719610595

$$$$
23
XXILIB    08252103503D 0   0.00000     0.00000

 26 29  0     1  0            999 V2000
   -2.9542   -0.0044    4.7148 F   0  0  0  0  0  1           0  0  0
   -4.0378   -0.2097   -0.3020 O   0  0  0  0  0  2           0  0  0
   -1.9029    0.3154   -3.7741 O   0  0  0  0  0  2           0  0  0
   -3.9151    0.1436   -2.7409 O   0  0  0  0  0  2           0  0  0
    0.0000    0.0000    0.0000 N   0  0  1  0  0  3           0  0  0
   -0.1541    0.0720    4.9054 N   0  0  1  0  0  3           0  0  0
    1.3394    0.3129    7.3314 N   0  0  0  0  0  3           0  0  0
   -2.2189    0.0016    3.5893 C   0  0  0  0  0  4           0  0  0
   -2.8274   -0.0619   -0.1831 C   0  0  0  0  0  4           0  0  0
   -0.7524   -0.0000    1.2103 C   0  0  0  0  0  4           0  0  0
   -0.6505    0.0987   -1.2112 C   0  0  0  0  0  4           0  0  0
   -0.8195    0.0370    3.6906 C   0  0  0  0  0  4           0  0  0
   -2.1632   -0.0285    1.1626 C   0  0  0  0  0  4           0  0  0
   -2.9096   -0.0243    2.3598 C   0  0  0  0  0  4           0  0  0
   -1.9759    0.0859   -1.4046 C   0  0  0  0  0  4           0  0  0
   -0.1180    0.0380    2.4712 C   0  0  0  0  0  4           0  0  0
   -2.5613    0.1936   -2.7501 C   0  0  0  0  0  4           0  0  0
    1.4648   -0.0000    0.0000 C   0  0  2  0  0  4           0  0  0
    1.5260   -0.8591    6.4686 C   0  0  1  0  0  4           0  0  0
    1.1793   -0.5364    5.0071 C   0  0  0  0  0  4           0  0  0
   -0.4649    1.1469    5.8544 C   0  0  0  0  0  4           0  0  0
   -0.0514    0.7577    7.2718 C   0  0  0  0  0  4           0  0  0
   -4.4149   -0.0456    2.3980 C   0  0  0  0  0  4           0  0  0
    2.2636   -0.6393   -1.1073 C   0  0  0  0  0  4           0  0  0
    2.2644   -1.2508    0.2607 C   0  0  0  0  0  4           0  0  0
    2.9736   -1.3341    6.5871 C   0  0  0  0  0  4           0  0  0
  1  8  1  0     0  0
  2  9  2  0     0  0
  3 17  2  0     0  0
  4 17  1  0     0  0
  5 10  1  0     0  0
  5 11  1  0     0  0
  5 18  1  0     0  0
  6 12  1  0     0  0
  6 20  1  0     0  0
  6 21  1  0     0  0
  7 19  1  0     0  0
  7 22  1  0     0  0
  8 12  1  0     0  0
  8 14  2  0     0  0
  9 13  1  0     0  0
  9 15  1  0     0  0
 10 13  2  0     0  0
 10 16  1  0     0  0
 11 15  2  0     0  0
 12 16  2  0     0  0
 13 14  1  0     0  0
 14 23  1  0     0  0
 15 17  1  0     0  0
 18 24  1  0     0  0
 18 25  1  0     0  0
 19 20  1  0     0  0
 19 26  1  0     0  0
 21 22  1  0     0  0
 24 25  1  0     0  0
M  END
> <standard_type>
pIC50

> <# Confs.>
25

> <canonical_smiles>
FC1=C(C)C2=C(N(C3CC3)C=C(C(O)=O)C2=O)C=C1N4CC(C)NCC4

> <standard_relation>
=

> <Publication_ID>
nan

> <predicted_activity_value>
nan

> <actual_activity_value>
-1.6989700043360187

> <Compound>
Grepafloxacin 

> <standard_units>
uM

> hash
8674525557719610595

$$$$
23
XXILIB    08252103503D 0   0.00000     0.00000

 26 29  0     1  0            999 V2000
   -2.9542   -0.0044    4.7148 F   0  0  0  0  0  1           0  0  0
   -4.0378   -0.2097   -0.3020 O   0  0  0  0  0  2           0  0  0
   -1.9029    0.3154   -3.7741 O   0  0  0  0  0  2           0  0  0
   -3.9151    0.1436   -2.7409 O   0  0  0  0  0  2           0  0  0
    0.0000    0.0000    0.0000 N   0  0  1  0  0  3           0  0  0
   -0.1542    0.0720    4.9053 N   0  0  1  0  0  3           0  0  0
    1.3230    0.0113    7.3519 N   0  0  0  0  0  3           0  0  0
   -2.2189    0.0016    3.5893 C   0  0  0  0  0  4           0  0  0
   -2.8274   -0.0619   -0.1831 C   0  0  0  0  0  4           0  0  0
   -0.7524   -0.0000    1.2103 C   0  0  0  0  0  4           0  0  0
   -0.6505    0.0987   -1.2112 C   0  0  0  0  0  4           0  0  0
   -0.8195    0.0370    3.6906 C   0  0  0  0  0  4           0  0  0
   -2.1632   -0.0285    1.1626 C   0  0  0  0  0  4           0  0  0
   -2.9096   -0.0243    2.3598 C   0  0  0  0  0  4           0  0  0
   -1.9759    0.0859   -1.4046 C   0  0  0  0  0  4           0  0  0
   -0.1180    0.0380    2.4712 C   0  0  0  0  0  4           0  0  0
   -2.5613    0.1936   -2.7501 C   0  0  0  0  0  4           0  0  0
    1.4648   -0.0000    0.0000 C   0  0  2  0  0  4           0  0  0
    1.4657    1.1497    6.4371 C   0  0  1  0  0  4           0  0  0
    1.1481    0.7465    4.9890 C   0  0  0  0  0  4           0  0  0
   -0.4201   -0.9760    5.8970 C   0  0  0  0  0  4           0  0  0
   -0.0458   -0.4995    7.2989 C   0  0  0  0  0  4           0  0  0
   -4.4149   -0.0456    2.3980 C   0  0  0  0  0  4           0  0  0
    2.2636   -0.6393   -1.1073 C   0  0  0  0  0  4           0  0  0
    2.2644   -1.2508    0.2607 C   0  0  0  0  0  4           0  0  0
    2.8881    1.6972    6.5433 C   0  0  0  0  0  4           0  0  0
  1  8  1  0     0  0
  2  9  2  0     0  0
  3 17  2  0     0  0
  4 17  1  0     0  0
  5 10  1  0     0  0
  5 11  1  0     0  0
  5 18  1  0     0  0
  6 12  1  0     0  0
  6 20  1  0     0  0
  6 21  1  0     0  0
  7 19  1  0     0  0
  7 22  1  0     0  0
  8 12  1  0     0  0
  8 14  2  0     0  0
  9 13  1  0     0  0
  9 15  1  0     0  0
 10 13  2  0     0  0
 10 16  1  0     0  0
 11 15  2  0     0  0
 12 16  2  0     0  0
 13 14  1  0     0  0
 14 23  1  0     0  0
 15 17  1  0     0  0
 18 24  1  0     0  0
 18 25  1  0     0  0
 19 20  1  0     0  0
 19 26  1  0     0  0
 21 22  1  0     0  0
 24 25  1  0     0  0
M  END
> <standard_type>
pIC50

> <# Confs.>
25

> <canonical_smiles>
FC1=C(C)C2=C(N(C3CC3)C=C(C(O)=O)C2=O)C=C1N4CC(C)NCC4

> <standard_relation>
=

> <Publication_ID>
nan

> <predicted_activity_value>
nan

> <actual_activity_value>
-1.6989700043360187

> <Compound>
Grepafloxacin 

> <standard_units>
uM

> hash
8674525557719610595

$$$$
23
XXILIB    08252103503D 0   0.00000     0.00000

 26 29  0     1  0            999 V2000
   -2.9542   -0.0044    4.7148 F   0  0  0  0  0  1           0  0  0
   -4.0378   -0.2097   -0.3020 O   0  0  0  0  0  2           0  0  0
   -1.9029    0.3154   -3.7741 O   0  0  0  0  0  2           0  0  0
   -3.9151    0.1436   -2.7409 O   0  0  0  0  0  2           0  0  0
    0.0000    0.0000    0.0000 N   0  0  1  0  0  3           0  0  0
   -0.1542    0.0720    4.9053 N   0  0  1  0  0  3           0  0  0
    1.3230    0.0113    7.3519 N   0  0  0  0  0  3           0  0  0
   -2.2189    0.0016    3.5893 C   0  0  0  0  0  4           0  0  0
   -2.8274   -0.0619   -0.1831 C   0  0  0  0  0  4           0  0  0
   -0.7524   -0.0000    1.2103 C   0  0  0  0  0  4           0  0  0
   -0.6505    0.0987   -1.2112 C   0  0  0  0  0  4           0  0  0
   -0.8195    0.0370    3.6906 C   0  0  0  0  0  4           0  0  0
   -2.1632   -0.0285    1.1626 C   0  0  0  0  0  4           0  0  0
   -2.9096   -0.0243    2.3598 C   0  0  0  0  0  4           0  0  0
   -1.9759    0.0859   -1.4046 C   0  0  0  0  0  4           0  0  0
   -0.1180    0.0380    2.4712 C   0  0  0  0  0  4           0  0  0
   -2.5613    0.1936   -2.7501 C   0  0  0  0  0  4           0  0  0
    1.4648    0.0000   -0.0000 C   0  0  2  0  0  4           0  0  0
    1.4657    1.1497    6.4371 C   0  0  1  0  0  4           0  0  0
    1.1481    0.7465    4.9890 C   0  0  0  0  0  4           0  0  0
   -0.4201   -0.9760    5.8970 C   0  0  0  0  0  4           0  0  0
   -0.0458   -0.4995    7.2989 C   0  0  0  0  0  4           0  0  0
   -4.4149   -0.0456    2.3980 C   0  0  0  0  0  4           0  0  0
    2.2636    1.1073    0.6393 C   0  0  0  0  0  4           0  0  0
    2.2644    0.9529   -0.8512 C   0  0  0  0  0  4           0  0  0
    2.8881    1.6972    6.5433 C   0  0  0  0  0  4           0  0  0
  1  8  1  0     0  0
  2  9  2  0     0  0
  3 17  2  0     0  0
  4 17  1  0     0  0
  5 10  1  0     0  0
  5 11  1  0     0  0
  5 18  1  0     0  0
  6 12  1  0     0  0
  6 20  1  0     0  0
  6 21  1  0     0  0
  7 19  1  0     0  0
  7 22  1  0     0  0
  8 12  1  0     0  0
  8 14  2  0     0  0
  9 13  1  0     0  0
  9 15  1  0     0  0
 10 13  2  0     0  0
 10 16  1  0     0  0
 11 15  2  0     0  0
 12 16  2  0     0  0
 13 14  1  0     0  0
 14 23  1  0     0  0
 15 17  1  0     0  0
 18 24  1  0     0  0
 18 25  1  0     0  0
 19 20  1  0     0  0
 19 26  1  0     0  0
 21 22  1  0     0  0
 24 25  1  0     0  0
M  END
> <standard_type>
pIC50

> <# Confs.>
25

> <canonical_smiles>
FC1=C(C)C2=C(N(C3CC3)C=C(C(O)=O)C2=O)C=C1N4CC(C)NCC4

> <standard_relation>
=

> <Publication_ID>
nan

> <predicted_activity_value>
nan

> <actual_activity_value>
-1.6989700043360187

> <Compound>
Grepafloxacin 

> <standard_units>
uM

> hash
8674525557719610595

$$$$
23
XXILIB    08252103503D 0   0.00000     0.00000

 26 29  0     1  0            999 V2000
   -2.9542   -0.0044    4.7148 F   0  0  0  0  0  1           0  0  0
   -4.0378   -0.2097   -0.3020 O   0  0  0  0  0  2           0  0  0
   -1.9029    0.3154   -3.7741 O   0  0  0  0  0  2           0  0  0
   -3.9151    0.1436   -2.7409 O   0  0  0  0  0  2           0  0  0
    0.0000    0.0000    0.0000 N   0  0  1  0  0  3           0  0  0
   -0.1541    0.0720    4.9054 N   0  0  1  0  0  3           0  0  0
    1.3394    0.3129    7.3314 N   0  0  0  0  0  3           0  0  0
   -2.2189    0.0016    3.5893 C   0  0  0  0  0  4           0  0  0
   -2.8274   -0.0619   -0.1831 C   0  0  0  0  0  4           0  0  0
   -0.7524   -0.0000    1.2103 C   0  0  0  0  0  4           0  0  0
   -0.6505    0.0987   -1.2112 C   0  0  0  0  0  4           0  0  0
   -0.8195    0.0370    3.6906 C   0  0  0  0  0  4           0  0  0
   -2.1632   -0.0285    1.1626 C   0  0  0  0  0  4           0  0  0
   -2.9096   -0.0243    2.3598 C   0  0  0  0  0  4           0  0  0
   -1.9759    0.0859   -1.4046 C   0  0  0  0  0  4           0  0  0
   -0.1180    0.0380    2.4712 C   0  0  0  0  0  4           0  0  0
   -2.5613    0.1936   -2.7501 C   0  0  0  0  0  4           0  0  0
    1.4648    0.0000   -0.0000 C   0  0  2  0  0  4           0  0  0
    1.5260   -0.8591    6.4686 C   0  0  1  0  0  4           0  0  0
    1.1793   -0.5364    5.0071 C   0  0  0  0  0  4           0  0  0
   -0.4649    1.1469    5.8544 C   0  0  0  0  0  4           0  0  0
   -0.0514    0.7577    7.2718 C   0  0  0  0  0  4           0  0  0
   -4.4149   -0.0456    2.3980 C   0  0  0  0  0  4           0  0  0
    2.2636    1.1073    0.6393 C   0  0  0  0  0  4           0  0  0
    2.2644    0.9529   -0.8512 C   0  0  0  0  0  4           0  0  0
    2.9736   -1.3341    6.5871 C   0  0  0  0  0  4           0  0  0
  1  8  1  0     0  0
  2  9  2  0     0  0
  3 17  2  0     0  0
  4 17  1  0     0  0
  5 10  1  0     0  0
  5 11  1  0     0  0
  5 18  1  0     0  0
  6 12  1  0     0  0
  6 20  1  0     0  0
  6 21  1  0     0  0
  7 19  1  0     0  0
  7 22  1  0     0  0
  8 12  1  0     0  0
  8 14  2  0     0  0
  9 13  1  0     0  0
  9 15  1  0     0  0
 10 13  2  0     0  0
 10 16  1  0     0  0
 11 15  2  0     0  0
 12 16  2  0     0  0
 13 14  1  0     0  0
 14 23  1  0     0  0
 15 17  1  0     0  0
 18 24  1  0     0  0
 18 25  1  0     0  0
 19 20  1  0     0  0
 19 26  1  0     0  0
 21 22  1  0     0  0
 24 25  1  0     0  0
M  END
> <standard_type>
pIC50

> <# Confs.>
25

> <canonical_smiles>
FC1=C(C)C2=C(N(C3CC3)C=C(C(O)=O)C2=O)C=C1N4CC(C)NCC4

> <standard_relation>
=

> <Publication_ID>
nan

> <predicted_activity_value>
nan

> <actual_activity_value>
-1.6989700043360187

> <Compound>
Grepafloxacin 

> <standard_units>
uM

> hash
8674525557719610595

$$$$
23
XXILIB    08252103503D 0   0.00000     0.00000

 26 29  0     1  0            999 V2000
   -2.9542   -0.0044    4.7148 F   0  0  0  0  0  1           0  0  0
   -4.0378   -0.2097   -0.3020 O   0  0  0  0  0  2           0  0  0
   -1.9029    0.3154   -3.7741 O   0  0  0  0  0  2           0  0  0
   -3.9151    0.1436   -2.7409 O   0  0  0  0  0  2           0  0  0
    0.0000    0.0000    0.0000 N   0  0  1  0  0  3           0  0  0
   -0.1592    0.0717    4.8962 N   0  0  1  0  0  3           0  0  0
   -0.0880   -1.3192    7.3753 N   0  0  0  0  0  3           0  0  0
   -2.2189    0.0016    3.5893 C   0  0  0  0  0  4           0  0  0
   -2.8274   -0.0619   -0.1831 C   0  0  0  0  0  4           0  0  0
   -0.7524   -0.0000    1.2103 C   0  0  0  0  0  4           0  0  0
   -0.6505    0.0987   -1.2112 C   0  0  0  0  0  4           0  0  0
   -0.8195    0.0370    3.6906 C   0  0  0  0  0  4           0  0  0
   -2.1632   -0.0285    1.1626 C   0  0  0  0  0  4           0  0  0
   -2.9096   -0.0243    2.3598 C   0  0  0  0  0  4           0  0  0
   -1.9759    0.0859   -1.4046 C   0  0  0  0  0  4           0  0  0
   -0.1180    0.0380    2.4712 C   0  0  0  0  0  4           0  0  0
   -2.5613    0.1936   -2.7501 C   0  0  0  0  0  4           0  0  0
    1.4648   -0.0000    0.0000 C   0  0  2  0  0  4           0  0  0
   -1.2029   -0.4107    7.0495 C   0  0  1  0  0  4           0  0  0
   -0.7462    0.6981    6.0840 C   0  0  0  0  0  4           0  0  0
    0.9691   -0.8156    5.1864 C   0  0  0  0  0  4           0  0  0
    0.4983   -1.8993    6.1600 C   0  0  0  0  0  4           0  0  0
   -4.4149   -0.0456    2.3980 C   0  0  0  0  0  4           0  0  0
    2.2636   -0.6393   -1.1073 C   0  0  0  0  0  4           0  0  0
    2.2644   -1.2508    0.2607 C   0  0  0  0  0  4           0  0  0
   -1.7478    0.1924    8.3426 C   0  0  0  0  0  4           0  0  0
  1  8  1  0     0  0
  2  9  2  0     0  0
  3 17  2  0     0  0
  4 17  1  0     0  0
  5 10  1  0     0  0
  5 11  1  0     0  0
  5 18  1  0     0  0
  6 12  1  0     0  0
  6 20  1  0     0  0
  6 21  1  0     0  0
  7 19  1  0     0  0
  7 22  1  0     0  0
  8 12  1  0     0  0
  8 14  2  0     0  0
  9 13  1  0     0  0
  9 15  1  0     0  0
 10 13  2  0     0  0
 10 16  1  0     0  0
 11 15  2  0     0  0
 12 16  2  0     0  0
 13 14  1  0     0  0
 14 23  1  0     0  0
 15 17  1  0     0  0
 18 24  1  0     0  0
 18 25  1  0     0  0
 19 20  1  0     0  0
 19 26  1  0     0  0
 21 22  1  0     0  0
 24 25  1  0     0  0
M  END
> <standard_type>
pIC50

> <# Confs.>
25

> <canonical_smiles>
FC1=C(C)C2=C(N(C3CC3)C=C(C(O)=O)C2=O)C=C1N4CC(C)NCC4

> <standard_relation>
=

> <Publication_ID>
nan

> <predicted_activity_value>
nan

> <actual_activity_value>
-1.6989700043360187

> <Compound>
Grepafloxacin 

> <standard_units>
uM

> hash
8674525557719610595

$$$$
23
XXILIB    08252103503D 0   0.00000     0.00000

 26 29  0     1  0            999 V2000
   -2.9542   -0.0044    4.7148 F   0  0  0  0  0  1           0  0  0
   -4.0378   -0.2097   -0.3020 O   0  0  0  0  0  2           0  0  0
   -1.9029    0.3154   -3.7741 O   0  0  0  0  0  2           0  0  0
   -3.9151    0.1436   -2.7409 O   0  0  0  0  0  2           0  0  0
    0.0000    0.0000    0.0000 N   0  0  1  0  0  3           0  0  0
   -0.1596    0.0717    4.8954 N   0  0  1  0  0  3           0  0  0
   -0.0545    1.4998    7.3517 N   0  0  0  0  0  3           0  0  0
   -2.2189    0.0016    3.5893 C   0  0  0  0  0  4           0  0  0
   -2.8274   -0.0619   -0.1831 C   0  0  0  0  0  4           0  0  0
   -0.7524   -0.0000    1.2103 C   0  0  0  0  0  4           0  0  0
   -0.6505    0.0987   -1.2112 C   0  0  0  0  0  4           0  0  0
   -0.8195    0.0370    3.6906 C   0  0  0  0  0  4           0  0  0
   -2.1632   -0.0285    1.1626 C   0  0  0  0  0  4           0  0  0
   -2.9096   -0.0243    2.3598 C   0  0  0  0  0  4           0  0  0
   -1.9759    0.0859   -1.4046 C   0  0  0  0  0  4           0  0  0
   -0.1180    0.0380    2.4712 C   0  0  0  0  0  4           0  0  0
   -2.5613    0.1936   -2.7501 C   0  0  0  0  0  4           0  0  0
    1.4648   -0.0000    0.0000 C   0  0  2  0  0  4           0  0  0
   -1.1633    0.5714    7.0658 C   0  0  1  0  0  4           0  0  0
   -0.7136   -0.5440    6.1046 C   0  0  0  0  0  4           0  0  0
    0.9549    0.9884    5.1448 C   0  0  0  0  0  4           0  0  0
    0.4842    2.0763    6.1131 C   0  0  0  0  0  4           0  0  0
   -4.4149   -0.0456    2.3980 C   0  0  0  0  0  4           0  0  0
    2.2636   -0.6393   -1.1073 C   0  0  0  0  0  4           0  0  0
    2.2644   -1.2508    0.2607 C   0  0  0  0  0  4           0  0  0
   -1.6699   -0.0193    8.3798 C   0  0  0  0  0  4           0  0  0
  1  8  1  0     0  0
  2  9  2  0     0  0
  3 17  2  0     0  0
  4 17  1  0     0  0
  5 10  1  0     0  0
  5 11  1  0     0  0
  5 18  1  0     0  0
  6 12  1  0     0  0
  6 20  1  0     0  0
  6 21  1  0     0  0
  7 19  1  0     0  0
  7 22  1  0     0  0
  8 12  1  0     0  0
  8 14  2  0     0  0
  9 13  1  0     0  0
  9 15  1  0     0  0
 10 13  2  0     0  0
 10 16  1  0     0  0
 11 15  2  0     0  0
 12 16  2  0     0  0
 13 14  1  0     0  0
 14 23  1  0     0  0
 15 17  1  0     0  0
 18 24  1  0     0  0
 18 25  1  0     0  0
 19 20  1  0     0  0
 19 26  1  0     0  0
 21 22  1  0     0  0
 24 25  1  0     0  0
M  END
> <standard_type>
pIC50

> <# Confs.>
25

> <canonical_smiles>
FC1=C(C)C2=C(N(C3CC3)C=C(C(O)=O)C2=O)C=C1N4CC(C)NCC4

> <standard_relation>
=

> <Publication_ID>
nan

> <predicted_activity_value>
nan

> <actual_activity_value>
-1.6989700043360187

> <Compound>
Grepafloxacin 

> <standard_units>
uM

> hash
8674525557719610595

$$$$
23
XXILIB    08252103503D 0   0.00000     0.00000

 26 29  0     1  0            999 V2000
   -2.9542   -0.0044    4.7148 F   0  0  0  0  0  1           0  0  0
   -4.0378   -0.2097   -0.3020 O   0  0  0  0  0  2           0  0  0
   -1.9029    0.3154   -3.7741 O   0  0  0  0  0  2           0  0  0
   -3.9151    0.1436   -2.7409 O   0  0  0  0  0  2           0  0  0
    0.0000    0.0000    0.0000 N   0  0  1  0  0  3           0  0  0
   -0.1596    0.0717    4.8954 N   0  0  1  0  0  3           0  0  0
    1.8869   -1.2432    6.3675 N   0  0  0  0  0  3           0  0  0
   -2.2189    0.0016    3.5893 C   0  0  0  0  0  4           0  0  0
   -2.8274   -0.0619   -0.1831 C   0  0  0  0  0  4           0  0  0
   -0.7524   -0.0000    1.2103 C   0  0  0  0  0  4           0  0  0
   -0.6505    0.0987   -1.2112 C   0  0  0  0  0  4           0  0  0
   -0.8195    0.0370    3.6906 C   0  0  0  0  0  4           0  0  0
   -2.1632   -0.0285    1.1626 C   0  0  0  0  0  4           0  0  0
   -2.9096   -0.0243    2.3598 C   0  0  0  0  0  4           0  0  0
   -1.9759    0.0859   -1.4046 C   0  0  0  0  0  4           0  0  0
   -0.1180    0.0380    2.4712 C   0  0  0  0  0  4           0  0  0
   -2.5613    0.1936   -2.7501 C   0  0  0  0  0  4           0  0  0
    1.4648   -0.0000    0.0000 C   0  0  2  0  0  4           0  0  0
    2.2210   -0.3556    5.2390 C   0  0  1  0  0  4           0  0  0
    1.1422    0.7268    5.0515 C   0  0  0  0  0  4           0  0  0
   -0.5278   -0.8057    6.0085 C   0  0  0  0  0  4           0  0  0
    0.5676   -1.8608    6.1809 C   0  0  0  0  0  4           0  0  0
   -4.4149   -0.0456    2.3980 C   0  0  0  0  0  4           0  0  0
    2.2636   -0.6393   -1.1073 C   0  0  0  0  0  4           0  0  0
    2.2644   -1.2508    0.2607 C   0  0  0  0  0  4           0  0  0
    3.5861    0.2803    5.4926 C   0  0  0  0  0  4           0  0  0
  1  8  1  0     0  0
  2  9  2  0     0  0
  3 17  2  0     0  0
  4 17  1  0     0  0
  5 10  1  0     0  0
  5 11  1  0     0  0
  5 18  1  0     0  0
  6 12  1  0     0  0
  6 20  1  0     0  0
  6 21  1  0     0  0
  7 19  1  0     0  0
  7 22  1  0     0  0
  8 12  1  0     0  0
  8 14  2  0     0  0
  9 13  1  0     0  0
  9 15  1  0     0  0
 10 13  2  0     0  0
 10 16  1  0     0  0
 11 15  2  0     0  0
 12 16  2  0     0  0
 13 14  1  0     0  0
 14 23  1  0     0  0
 15 17  1  0     0  0
 18 24  1  0     0  0
 18 25  1  0     0  0
 19 20  1  0     0  0
 19 26  1  0     0  0
 21 22  1  0     0  0
 24 25  1  0     0  0
M  END
> <standard_type>
pIC50

> <# Confs.>
25

> <canonical_smiles>
FC1=C(C)C2=C(N(C3CC3)C=C(C(O)=O)C2=O)C=C1N4CC(C)NCC4

> <standard_relation>
=

> <Publication_ID>
nan

> <predicted_activity_value>
nan

> <actual_activity_value>
-1.6989700043360187

> <Compound>
Grepafloxacin 

> <standard_units>
uM

> hash
8674525557719610595

$$$$
23
XXILIB    08252103503D 0   0.00000     0.00000

 26 29  0     1  0            999 V2000
   -2.9542   -0.0044    4.7148 F   0  0  0  0  0  1           0  0  0
   -4.0378   -0.2097   -0.3020 O   0  0  0  0  0  2           0  0  0
   -1.9029    0.3154   -3.7741 O   0  0  0  0  0  2           0  0  0
   -3.9151    0.1436   -2.7409 O   0  0  0  0  0  2           0  0  0
    0.0000    0.0000    0.0000 N   0  0  1  0  0  3           0  0  0
   -0.1592    0.0717    4.8962 N   0  0  1  0  0  3           0  0  0
    1.8564    1.5724    6.2271 N   0  0  0  0  0  3           0  0  0
   -2.2189    0.0016    3.5893 C   0  0  0  0  0  4           0  0  0
   -2.8274   -0.0619   -0.1831 C   0  0  0  0  0  4           0  0  0
   -0.7524   -0.0000    1.2103 C   0  0  0  0  0  4           0  0  0
   -0.6505    0.0987   -1.2112 C   0  0  0  0  0  4           0  0  0
   -0.8195    0.0370    3.6906 C   0  0  0  0  0  4           0  0  0
   -2.1632   -0.0285    1.1626 C   0  0  0  0  0  4           0  0  0
   -2.9096   -0.0243    2.3598 C   0  0  0  0  0  4           0  0  0
   -1.9759    0.0859   -1.4046 C   0  0  0  0  0  4           0  0  0
   -0.1180    0.0380    2.4712 C   0  0  0  0  0  4           0  0  0
   -2.5613    0.1936   -2.7501 C   0  0  0  0  0  4           0  0  0
    1.4648   -0.0000    0.0000 C   0  0  2  0  0  4           0  0  0
    2.2048    0.6237    5.1534 C   0  0  1  0  0  4           0  0  0
    1.1726   -0.5154    5.0680 C   0  0  0  0  0  4           0  0  0
   -0.5442    0.9982    5.9629 C   0  0  0  0  0  4           0  0  0
    0.5030    2.1122    6.0419 C   0  0  0  0  0  4           0  0  0
   -4.4149   -0.0456    2.3980 C   0  0  0  0  0  4           0  0  0
    2.2636   -0.6393   -1.1073 C   0  0  0  0  0  4           0  0  0
    2.2644   -1.2508    0.2607 C   0  0  0  0  0  4           0  0  0
    3.6019    0.0654    5.4163 C   0  0  0  0  0  4           0  0  0
  1  8  1  0     0  0
  2  9  2  0     0  0
  3 17  2  0     0  0
  4 17  1  0     0  0
  5 10  1  0     0  0
  5 11  1  0     0  0
  5 18  1  0     0  0
  6 12  1  0     0  0
  6 20  1  0     0  0
  6 21  1  0     0  0
  7 19  1  0     0  0
  7 22  1  0     0  0
  8 12  1  0     0  0
  8 14  2  0     0  0
  9 13  1  0     0  0
  9 15  1  0     0  0
 10 13  2  0     0  0
 10 16  1  0     0  0
 11 15  2  0     0  0
 12 16  2  0     0  0
 13 14  1  0     0  0
 14 23  1  0     0  0
 15 17  1  0     0  0
 18 24  1  0     0  0
 18 25  1  0     0  0
 19 20  1  0     0  0
 19 26  1  0     0  0
 21 22  1  0     0  0
 24 25  1  0     0  0
M  END
> <standard_type>
pIC50

> <# Confs.>
25

> <canonical_smiles>
FC1=C(C)C2=C(N(C3CC3)C=C(C(O)=O)C2=O)C=C1N4CC(C)NCC4

> <standard_relation>
=

> <Publication_ID>
nan

> <predicted_activity_value>
nan

> <actual_activity_value>
-1.6989700043360187

> <Compound>
Grepafloxacin 

> <standard_units>
uM

> hash
8674525557719610595

$$$$
23
XXILIB    08252103503D 0   0.00000     0.00000

 26 29  0     1  0            999 V2000
   -2.9542   -0.0044    4.7148 F   0  0  0  0  0  1           0  0  0
   -4.0378   -0.2097   -0.3020 O   0  0  0  0  0  2           0  0  0
   -1.9029    0.3154   -3.7741 O   0  0  0  0  0  2           0  0  0
   -3.9151    0.1436   -2.7409 O   0  0  0  0  0  2           0  0  0
    0.0000    0.0000    0.0000 N   0  0  1  0  0  3           0  0  0
   -0.1596    0.0717    4.8954 N   0  0  1  0  0  3           0  0  0
   -0.0545    1.4998    7.3517 N   0  0  0  0  0  3           0  0  0
   -2.2189    0.0016    3.5893 C   0  0  0  0  0  4           0  0  0
   -2.8274   -0.0619   -0.1831 C   0  0  0  0  0  4           0  0  0
   -0.7524   -0.0000    1.2103 C   0  0  0  0  0  4           0  0  0
   -0.6505    0.0987   -1.2112 C   0  0  0  0  0  4           0  0  0
   -0.8195    0.0370    3.6906 C   0  0  0  0  0  4           0  0  0
   -2.1632   -0.0285    1.1626 C   0  0  0  0  0  4           0  0  0
   -2.9096   -0.0243    2.3598 C   0  0  0  0  0  4           0  0  0
   -1.9759    0.0859   -1.4046 C   0  0  0  0  0  4           0  0  0
   -0.1180    0.0380    2.4712 C   0  0  0  0  0  4           0  0  0
   -2.5613    0.1936   -2.7501 C   0  0  0  0  0  4           0  0  0
    1.4648    0.0000   -0.0000 C   0  0  2  0  0  4           0  0  0
   -1.1633    0.5714    7.0658 C   0  0  1  0  0  4           0  0  0
   -0.7136   -0.5440    6.1046 C   0  0  0  0  0  4           0  0  0
    0.9549    0.9884    5.1448 C   0  0  0  0  0  4           0  0  0
    0.4842    2.0763    6.1131 C   0  0  0  0  0  4           0  0  0
   -4.4149   -0.0456    2.3980 C   0  0  0  0  0  4           0  0  0
    2.2636    1.1073    0.6393 C   0  0  0  0  0  4           0  0  0
    2.2644    0.9529   -0.8512 C   0  0  0  0  0  4           0  0  0
   -1.6699   -0.0193    8.3798 C   0  0  0  0  0  4           0  0  0
  1  8  1  0     0  0
  2  9  2  0     0  0
  3 17  2  0     0  0
  4 17  1  0     0  0
  5 10  1  0     0  0
  5 11  1  0     0  0
  5 18  1  0     0  0
  6 12  1  0     0  0
  6 20  1  0     0  0
  6 21  1  0     0  0
  7 19  1  0     0  0
  7 22  1  0     0  0
  8 12  1  0     0  0
  8 14  2  0     0  0
  9 13  1  0     0  0
  9 15  1  0     0  0
 10 13  2  0     0  0
 10 16  1  0     0  0
 11 15  2  0     0  0
 12 16  2  0     0  0
 13 14  1  0     0  0
 14 23  1  0     0  0
 15 17  1  0     0  0
 18 24  1  0     0  0
 18 25  1  0     0  0
 19 20  1  0     0  0
 19 26  1  0     0  0
 21 22  1  0     0  0
 24 25  1  0     0  0
M  END
> <standard_type>
pIC50

> <# Confs.>
25

> <canonical_smiles>
FC1=C(C)C2=C(N(C3CC3)C=C(C(O)=O)C2=O)C=C1N4CC(C)NCC4

> <standard_relation>
=

> <Publication_ID>
nan

> <predicted_activity_value>
nan

> <actual_activity_value>
-1.6989700043360187

> <Compound>
Grepafloxacin 

> <standard_units>
uM

> hash
8674525557719610595

$$$$
23
XXILIB    08252103503D 0   0.00000     0.00000

 26 29  0     1  0            999 V2000
   -2.9542   -0.0044    4.7148 F   0  0  0  0  0  1           0  0  0
   -4.0378   -0.2097   -0.3020 O   0  0  0  0  0  2           0  0  0
   -1.9029    0.3154   -3.7741 O   0  0  0  0  0  2           0  0  0
   -3.9151    0.1436   -2.7409 O   0  0  0  0  0  2           0  0  0
    0.0000    0.0000    0.0000 N   0  0  1  0  0  3           0  0  0
   -0.1592    0.0717    4.8962 N   0  0  1  0  0  3           0  0  0
   -0.0880   -1.3192    7.3753 N   0  0  0  0  0  3           0  0  0
   -2.2189    0.0016    3.5893 C   0  0  0  0  0  4           0  0  0
   -2.8274   -0.0619   -0.1831 C   0  0  0  0  0  4           0  0  0
   -0.7524   -0.0000    1.2103 C   0  0  0  0  0  4           0  0  0
   -0.6505    0.0987   -1.2112 C   0  0  0  0  0  4           0  0  0
   -0.8195    0.0370    3.6906 C   0  0  0  0  0  4           0  0  0
   -2.1632   -0.0285    1.1626 C   0  0  0  0  0  4           0  0  0
   -2.9096   -0.0243    2.3598 C   0  0  0  0  0  4           0  0  0
   -1.9759    0.0859   -1.4046 C   0  0  0  0  0  4           0  0  0
   -0.1180    0.0380    2.4712 C   0  0  0  0  0  4           0  0  0
   -2.5613    0.1936   -2.7501 C   0  0  0  0  0  4           0  0  0
    1.4648    0.0000   -0.0000 C   0  0  2  0  0  4           0  0  0
   -1.2029   -0.4107    7.0495 C   0  0  1  0  0  4           0  0  0
   -0.7462    0.6981    6.0840 C   0  0  0  0  0  4           0  0  0
    0.9691   -0.8156    5.1864 C   0  0  0  0  0  4           0  0  0
    0.4983   -1.8993    6.1600 C   0  0  0  0  0  4           0  0  0
   -4.4149   -0.0456    2.3980 C   0  0  0  0  0  4           0  0  0
    2.2636    1.1073    0.6393 C   0  0  0  0  0  4           0  0  0
    2.2644    0.9529   -0.8512 C   0  0  0  0  0  4           0  0  0
   -1.7478    0.1924    8.3426 C   0  0  0  0  0  4           0  0  0
  1  8  1  0     0  0
  2  9  2  0     0  0
  3 17  2  0     0  0
  4 17  1  0     0  0
  5 10  1  0     0  0
  5 11  1  0     0  0
  5 18  1  0     0  0
  6 12  1  0     0  0
  6 20  1  0     0  0
  6 21  1  0     0  0
  7 19  1  0     0  0
  7 22  1  0     0  0
  8 12  1  0     0  0
  8 14  2  0     0  0
  9 13  1  0     0  0
  9 15  1  0     0  0
 10 13  2  0     0  0
 10 16  1  0     0  0
 11 15  2  0     0  0
 12 16  2  0     0  0
 13 14  1  0     0  0
 14 23  1  0     0  0
 15 17  1  0     0  0
 18 24  1  0     0  0
 18 25  1  0     0  0
 19 20  1  0     0  0
 19 26  1  0     0  0
 21 22  1  0     0  0
 24 25  1  0     0  0
M  END
> <standard_type>
pIC50

> <# Confs.>
25

> <canonical_smiles>
FC1=C(C)C2=C(N(C3CC3)C=C(C(O)=O)C2=O)C=C1N4CC(C)NCC4

> <standard_relation>
=

> <Publication_ID>
nan

> <predicted_activity_value>
nan

> <actual_activity_value>
-1.6989700043360187

> <Compound>
Grepafloxacin 

> <standard_units>
uM

> hash
8674525557719610595

$$$$
23
XXILIB    08252103503D 0   0.00000     0.00000

 26 29  0     1  0            999 V2000
   -2.9542   -0.0044    4.7148 F   0  0  0  0  0  1           0  0  0
   -4.0378   -0.2097   -0.3020 O   0  0  0  0  0  2           0  0  0
   -1.9029    0.3154   -3.7741 O   0  0  0  0  0  2           0  0  0
   -3.9151    0.1436   -2.7409 O   0  0  0  0  0  2           0  0  0
    0.0000    0.0000    0.0000 N   0  0  1  0  0  3           0  0  0
   -0.1596    0.0717    4.8954 N   0  0  1  0  0  3           0  0  0
    1.8869   -1.2432    6.3675 N   0  0  0  0  0  3           0  0  0
   -2.2189    0.0016    3.5893 C   0  0  0  0  0  4           0  0  0
   -2.8274   -0.0619   -0.1831 C   0  0  0  0  0  4           0  0  0
   -0.7524   -0.0000    1.2103 C   0  0  0  0  0  4           0  0  0
   -0.6505    0.0987   -1.2112 C   0  0  0  0  0  4           0  0  0
   -0.8195    0.0370    3.6906 C   0  0  0  0  0  4           0  0  0
   -2.1632   -0.0285    1.1626 C   0  0  0  0  0  4           0  0  0
   -2.9096   -0.0243    2.3598 C   0  0  0  0  0  4           0  0  0
   -1.9759    0.0859   -1.4046 C   0  0  0  0  0  4           0  0  0
   -0.1180    0.0380    2.4712 C   0  0  0  0  0  4           0  0  0
   -2.5613    0.1936   -2.7501 C   0  0  0  0  0  4           0  0  0
    1.4648    0.0000   -0.0000 C   0  0  2  0  0  4           0  0  0
    2.2210   -0.3556    5.2390 C   0  0  1  0  0  4           0  0  0
    1.1422    0.7268    5.0515 C   0  0  0  0  0  4           0  0  0
   -0.5278   -0.8057    6.0085 C   0  0  0  0  0  4           0  0  0
    0.5676   -1.8608    6.1809 C   0  0  0  0  0  4           0  0  0
   -4.4149   -0.0456    2.3980 C   0  0  0  0  0  4           0  0  0
    2.2636    1.1073    0.6393 C   0  0  0  0  0  4           0  0  0
    2.2644    0.9529   -0.8512 C   0  0  0  0  0  4           0  0  0
    3.5861    0.2803    5.4926 C   0  0  0  0  0  4           0  0  0
  1  8  1  0     0  0
  2  9  2  0     0  0
  3 17  2  0     0  0
  4 17  1  0     0  0
  5 10  1  0     0  0
  5 11  1  0     0  0
  5 18  1  0     0  0
  6 12  1  0     0  0
  6 20  1  0     0  0
  6 21  1  0     0  0
  7 19  1  0     0  0
  7 22  1  0     0  0
  8 12  1  0     0  0
  8 14  2  0     0  0
  9 13  1  0     0  0
  9 15  1  0     0  0
 10 13  2  0     0  0
 10 16  1  0     0  0
 11 15  2  0     0  0
 12 16  2  0     0  0
 13 14  1  0     0  0
 14 23  1  0     0  0
 15 17  1  0     0  0
 18 24  1  0     0  0
 18 25  1  0     0  0
 19 20  1  0     0  0
 19 26  1  0     0  0
 21 22  1  0     0  0
 24 25  1  0     0  0
M  END
> <standard_type>
pIC50

> <# Confs.>
25

> <canonical_smiles>
FC1=C(C)C2=C(N(C3CC3)C=C(C(O)=O)C2=O)C=C1N4CC(C)NCC4

> <standard_relation>
=

> <Publication_ID>
nan

> <predicted_activity_value>
nan

> <actual_activity_value>
-1.6989700043360187

> <Compound>
Grepafloxacin 

> <standard_units>
uM

> hash
8674525557719610595

$$$$
23
XXILIB    08252103503D 0   0.00000     0.00000

 26 29  0     1  0            999 V2000
   -2.9542   -0.0044    4.7148 F   0  0  0  0  0  1           0  0  0
   -4.0378   -0.2097   -0.3020 O   0  0  0  0  0  2           0  0  0
   -1.9029    0.3154   -3.7741 O   0  0  0  0  0  2           0  0  0
   -3.9151    0.1436   -2.7409 O   0  0  0  0  0  2           0  0  0
    0.0000    0.0000    0.0000 N   0  0  1  0  0  3           0  0  0
   -0.1592    0.0717    4.8962 N   0  0  1  0  0  3           0  0  0
    1.8564    1.5724    6.2271 N   0  0  0  0  0  3           0  0  0
   -2.2189    0.0016    3.5893 C   0  0  0  0  0  4           0  0  0
   -2.8274   -0.0619   -0.1831 C   0  0  0  0  0  4           0  0  0
   -0.7524   -0.0000    1.2103 C   0  0  0  0  0  4           0  0  0
   -0.6505    0.0987   -1.2112 C   0  0  0  0  0  4           0  0  0
   -0.8195    0.0370    3.6906 C   0  0  0  0  0  4           0  0  0
   -2.1632   -0.0285    1.1626 C   0  0  0  0  0  4           0  0  0
   -2.9096   -0.0243    2.3598 C   0  0  0  0  0  4           0  0  0
   -1.9759    0.0859   -1.4046 C   0  0  0  0  0  4           0  0  0
   -0.1180    0.0380    2.4712 C   0  0  0  0  0  4           0  0  0
   -2.5613    0.1936   -2.7501 C   0  0  0  0  0  4           0  0  0
    1.4648    0.0000   -0.0000 C   0  0  2  0  0  4           0  0  0
    2.2048    0.6237    5.1534 C   0  0  1  0  0  4           0  0  0
    1.1726   -0.5154    5.0680 C   0  0  0  0  0  4           0  0  0
   -0.5442    0.9982    5.9629 C   0  0  0  0  0  4           0  0  0
    0.5030    2.1122    6.0419 C   0  0  0  0  0  4           0  0  0
   -4.4149   -0.0456    2.3980 C   0  0  0  0  0  4           0  0  0
    2.2636    1.1073    0.6393 C   0  0  0  0  0  4           0  0  0
    2.2644    0.9529   -0.8512 C   0  0  0  0  0  4           0  0  0
    3.6019    0.0654    5.4163 C   0  0  0  0  0  4           0  0  0
  1  8  1  0     0  0
  2  9  2  0     0  0
  3 17  2  0     0  0
  4 17  1  0     0  0
  5 10  1  0     0  0
  5 11  1  0     0  0
  5 18  1  0     0  0
  6 12  1  0     0  0
  6 20  1  0     0  0
  6 21  1  0     0  0
  7 19  1  0     0  0
  7 22  1  0     0  0
  8 12  1  0     0  0
  8 14  2  0     0  0
  9 13  1  0     0  0
  9 15  1  0     0  0
 10 13  2  0     0  0
 10 16  1  0     0  0
 11 15  2  0     0  0
 12 16  2  0     0  0
 13 14  1  0     0  0
 14 23  1  0     0  0
 15 17  1  0     0  0
 18 24  1  0     0  0
 18 25  1  0     0  0
 19 20  1  0     0  0
 19 26  1  0     0  0
 21 22  1  0     0  0
 24 25  1  0     0  0
M  END
> <standard_type>
pIC50

> <# Confs.>
25

> <canonical_smiles>
FC1=C(C)C2=C(N(C3CC3)C=C(C(O)=O)C2=O)C=C1N4CC(C)NCC4

> <standard_relation>
=

> <Publication_ID>
nan

> <predicted_activity_value>
nan

> <actual_activity_value>
-1.6989700043360187

> <Compound>
Grepafloxacin 

> <standard_units>
uM

> hash
8674525557719610595

$$$$
23
XXILIB    08252103503D 0   0.00000     0.00000

 26 29  0     1  0            999 V2000
   -2.9542   -0.0044    4.7148 F   0  0  0  0  0  1           0  0  0
   -4.0378   -0.2097   -0.3020 O   0  0  0  0  0  2           0  0  0
   -1.9029    0.3154   -3.7741 O   0  0  0  0  0  2           0  0  0
   -3.9151    0.1436   -2.7409 O   0  0  0  0  0  2           0  0  0
    0.0000    0.0000    0.0000 N   0  0  1  0  0  3           0  0  0
   -0.1547    0.0720    4.9043 N   0  0  1  0  0  3           0  0  0
    1.1644    0.1641    7.4327 N   0  0  0  0  0  3           0  0  0
   -2.2189    0.0016    3.5893 C   0  0  0  0  0  4           0  0  0
   -2.8274   -0.0619   -0.1831 C   0  0  0  0  0  4           0  0  0
   -0.7524   -0.0000    1.2103 C   0  0  0  0  0  4           0  0  0
   -0.6505    0.0987   -1.2112 C   0  0  0  0  0  4           0  0  0
   -0.8195    0.0370    3.6906 C   0  0  0  0  0  4           0  0  0
   -2.1632   -0.0285    1.1626 C   0  0  0  0  0  4           0  0  0
   -2.9096   -0.0243    2.3598 C   0  0  0  0  0  4           0  0  0
   -1.9759    0.0859   -1.4046 C   0  0  0  0  0  4           0  0  0
   -0.1180    0.0380    2.4712 C   0  0  0  0  0  4           0  0  0
   -2.5613    0.1936   -2.7501 C   0  0  0  0  0  4           0  0  0
    1.4648   -0.0000    0.0000 C   0  0  2  0  0  4           0  0  0
    0.8453   -1.1332    6.8284 C   0  0  1  0  0  4           0  0  0
   -0.3427   -1.0258    5.8604 C   0  0  0  0  0  4           0  0  0
    0.2371    1.3656    5.4726 C   0  0  0  0  0  4           0  0  0
    1.4113    1.2008    6.4349 C   0  0  0  0  0  4           0  0  0
   -4.4149   -0.0456    2.3980 C   0  0  0  0  0  4           0  0  0
    2.2636   -0.6393   -1.1073 C   0  0  0  0  0  4           0  0  0
    2.2644   -1.2508    0.2607 C   0  0  0  0  0  4           0  0  0
    2.0635   -1.7868    6.1653 C   0  0  0  0  0  4           0  0  0
  1  8  1  0     0  0
  2  9  2  0     0  0
  3 17  2  0     0  0
  4 17  1  0     0  0
  5 10  1  0     0  0
  5 11  1  0     0  0
  5 18  1  0     0  0
  6 12  1  0     0  0
  6 20  1  0     0  0
  6 21  1  0     0  0
  7 19  1  0     0  0
  7 22  1  0     0  0
  8 12  1  0     0  0
  8 14  2  0     0  0
  9 13  1  0     0  0
  9 15  1  0     0  0
 10 13  2  0     0  0
 10 16  1  0     0  0
 11 15  2  0     0  0
 12 16  2  0     0  0
 13 14  1  0     0  0
 14 23  1  0     0  0
 15 17  1  0     0  0
 18 24  1  0     0  0
 18 25  1  0     0  0
 19 20  1  0     0  0
 19 26  1  0     0  0
 21 22  1  0     0  0
 24 25  1  0     0  0
M  END
> <standard_type>
pIC50

> <# Confs.>
25

> <canonical_smiles>
FC1=C(C)C2=C(N(C3CC3)C=C(C(O)=O)C2=O)C=C1N4CC(C)NCC4

> <standard_relation>
=

> <Publication_ID>
nan

> <predicted_activity_value>
nan

> <actual_activity_value>
-1.6989700043360187

> <Compound>
Grepafloxacin 

> <standard_units>
uM

> hash
8674525557719610595

$$$$
23
XXILIB    08252103503D 0   0.00000     0.00000

 26 29  0     1  0            999 V2000
   -2.9542   -0.0044    4.7148 F   0  0  0  0  0  1           0  0  0
   -4.0378   -0.2097   -0.3020 O   0  0  0  0  0  2           0  0  0
   -1.9029    0.3154   -3.7741 O   0  0  0  0  0  2           0  0  0
   -3.9151    0.1436   -2.7409 O   0  0  0  0  0  2           0  0  0
    0.0000    0.0000    0.0000 N   0  0  1  0  0  3           0  0  0
   -0.1551    0.0720    4.9036 N   0  0  1  0  0  3           0  0  0
    1.2107    0.1327    7.4071 N   0  0  0  0  0  3           0  0  0
   -2.2189    0.0016    3.5893 C   0  0  0  0  0  4           0  0  0
   -2.8274   -0.0619   -0.1831 C   0  0  0  0  0  4           0  0  0
   -0.7524   -0.0000    1.2103 C   0  0  0  0  0  4           0  0  0
   -0.6505    0.0987   -1.2112 C   0  0  0  0  0  4           0  0  0
   -0.8195    0.0370    3.6906 C   0  0  0  0  0  4           0  0  0
   -2.1632   -0.0285    1.1626 C   0  0  0  0  0  4           0  0  0
   -2.9096   -0.0243    2.3598 C   0  0  0  0  0  4           0  0  0
   -1.9759    0.0859   -1.4046 C   0  0  0  0  0  4           0  0  0
   -0.1180    0.0380    2.4712 C   0  0  0  0  0  4           0  0  0
   -2.5613    0.1936   -2.7501 C   0  0  0  0  0  4           0  0  0
    1.4648   -0.0000    0.0000 C   0  0  2  0  0  4           0  0  0
    0.8008    1.3908    6.7749 C   0  0  1  0  0  4           0  0  0
   -0.3932    1.1864    5.8290 C   0  0  0  0  0  4           0  0  0
    0.3141   -1.1787    5.5074 C   0  0  0  0  0  4           0  0  0
    1.4994   -0.9156    6.4328 C   0  0  0  0  0  4           0  0  0
   -4.4149   -0.0456    2.3980 C   0  0  0  0  0  4           0  0  0
    2.2636   -0.6393   -1.1073 C   0  0  0  0  0  4           0  0  0
    2.2644   -1.2508    0.2607 C   0  0  0  0  0  4           0  0  0
    1.9663    2.0970    6.0734 C   0  0  0  0  0  4           0  0  0
  1  8  1  0     0  0
  2  9  2  0     0  0
  3 17  2  0     0  0
  4 17  1  0     0  0
  5 10  1  0     0  0
  5 11  1  0     0  0
  5 18  1  0     0  0
  6 12  1  0     0  0
  6 20  1  0     0  0
  6 21  1  0     0  0
  7 19  1  0     0  0
  7 22  1  0     0  0
  8 12  1  0     0  0
  8 14  2  0     0  0
  9 13  1  0     0  0
  9 15  1  0     0  0
 10 13  2  0     0  0
 10 16  1  0     0  0
 11 15  2  0     0  0
 12 16  2  0     0  0
 13 14  1  0     0  0
 14 23  1  0     0  0
 15 17  1  0     0  0
 18 24  1  0     0  0
 18 25  1  0     0  0
 19 20  1  0     0  0
 19 26  1  0     0  0
 21 22  1  0     0  0
 24 25  1  0     0  0
M  END
> <standard_type>
pIC50

> <# Confs.>
25

> <canonical_smiles>
FC1=C(C)C2=C(N(C3CC3)C=C(C(O)=O)C2=O)C=C1N4CC(C)NCC4

> <standard_relation>
=

> <Publication_ID>
nan

> <predicted_activity_value>
nan

> <actual_activity_value>
-1.6989700043360187

> <Compound>
Grepafloxacin 

> <standard_units>
uM

> hash
8674525557719610595

$$$$
23
XXILIB    08252103503D 0   0.00000     0.00000

 26 29  0     1  0            999 V2000
   -2.9542   -0.0044    4.7148 F   0  0  0  0  0  1           0  0  0
   -4.0378   -0.2097   -0.3020 O   0  0  0  0  0  2           0  0  0
   -1.9029    0.3154   -3.7741 O   0  0  0  0  0  2           0  0  0
   -3.9151    0.1436   -2.7409 O   0  0  0  0  0  2           0  0  0
    0.0000    0.0000    0.0000 N   0  0  1  0  0  3           0  0  0
   -0.1596    0.0717    4.8954 N   0  0  1  0  0  3           0  0  0
    2.1063    1.2157    6.1765 N   0  0  0  0  0  3           0  0  0
   -2.2189    0.0016    3.5893 C   0  0  0  0  0  4           0  0  0
   -2.8274   -0.0619   -0.1831 C   0  0  0  0  0  4           0  0  0
   -0.7524   -0.0000    1.2103 C   0  0  0  0  0  4           0  0  0
   -0.6505    0.0987   -1.2112 C   0  0  0  0  0  4           0  0  0
   -0.8195    0.0370    3.6906 C   0  0  0  0  0  4           0  0  0
   -2.1632   -0.0285    1.1626 C   0  0  0  0  0  4           0  0  0
   -2.9096   -0.0243    2.3598 C   0  0  0  0  0  4           0  0  0
   -1.9759    0.0859   -1.4046 C   0  0  0  0  0  4           0  0  0
   -0.1180    0.0380    2.4712 C   0  0  0  0  0  4           0  0  0
   -2.5613    0.1936   -2.7501 C   0  0  0  0  0  4           0  0  0
    1.4648   -0.0000    0.0000 C   0  0  2  0  0  4           0  0  0
    0.9122    2.0302    5.8871 C   0  0  1  0  0  4           0  0  0
   -0.3561    1.1578    5.8597 C   0  0  0  0  0  4           0  0  0
    1.0109   -0.7661    5.1646 C   0  0  0  0  0  4           0  0  0
    2.2528    0.1281    5.2006 C   0  0  0  0  0  4           0  0  0
   -4.4149   -0.0456    2.3980 C   0  0  0  0  0  4           0  0  0
    2.2636   -0.6393   -1.1073 C   0  0  0  0  0  4           0  0  0
    2.2644   -1.2508    0.2607 C   0  0  0  0  0  4           0  0  0
    0.7903    3.1280    6.9417 C   0  0  0  0  0  4           0  0  0
  1  8  1  0     0  0
  2  9  2  0     0  0
  3 17  2  0     0  0
  4 17  1  0     0  0
  5 10  1  0     0  0
  5 11  1  0     0  0
  5 18  1  0     0  0
  6 12  1  0     0  0
  6 20  1  0     0  0
  6 21  1  0     0  0
  7 19  1  0     0  0
  7 22  1  0     0  0
  8 12  1  0     0  0
  8 14  2  0     0  0
  9 13  1  0     0  0
  9 15  1  0     0  0
 10 13  2  0     0  0
 10 16  1  0     0  0
 11 15  2  0     0  0
 12 16  2  0     0  0
 13 14  1  0     0  0
 14 23  1  0     0  0
 15 17  1  0     0  0
 18 24  1  0     0  0
 18 25  1  0     0  0
 19 20  1  0     0  0
 19 26  1  0     0  0
 21 22  1  0     0  0
 24 25  1  0     0  0
M  END
> <standard_type>
pIC50

> <# Confs.>
25

> <canonical_smiles>
FC1=C(C)C2=C(N(C3CC3)C=C(C(O)=O)C2=O)C=C1N4CC(C)NCC4

> <standard_relation>
=

> <Publication_ID>
nan

> <predicted_activity_value>
nan

> <actual_activity_value>
-1.6989700043360187

> <Compound>
Grepafloxacin 

> <standard_units>
uM

> hash
8674525557719610595

$$$$
23
XXILIB    08252103503D 0   0.00000     0.00000

 26 29  0     1  0            999 V2000
   -2.9542   -0.0044    4.7148 F   0  0  0  0  0  1           0  0  0
   -4.0378   -0.2097   -0.3020 O   0  0  0  0  0  2           0  0  0
   -1.9029    0.3154   -3.7741 O   0  0  0  0  0  2           0  0  0
   -3.9151    0.1436   -2.7409 O   0  0  0  0  0  2           0  0  0
    0.0000    0.0000    0.0000 N   0  0  1  0  0  3           0  0  0
   -0.1592    0.0717    4.8962 N   0  0  1  0  0  3           0  0  0
    2.1663   -1.0015    6.1315 N   0  0  0  0  0  3           0  0  0
   -2.2189    0.0016    3.5893 C   0  0  0  0  0  4           0  0  0
   -2.8274   -0.0619   -0.1831 C   0  0  0  0  0  4           0  0  0
   -0.7524   -0.0000    1.2103 C   0  0  0  0  0  4           0  0  0
   -0.6505    0.0987   -1.2112 C   0  0  0  0  0  4           0  0  0
   -0.8195    0.0370    3.6906 C   0  0  0  0  0  4           0  0  0
   -2.1632   -0.0285    1.1626 C   0  0  0  0  0  4           0  0  0
   -2.9096   -0.0243    2.3598 C   0  0  0  0  0  4           0  0  0
   -1.9759    0.0859   -1.4046 C   0  0  0  0  0  4           0  0  0
   -0.1180    0.0380    2.4712 C   0  0  0  0  0  4           0  0  0
   -2.5613    0.1936   -2.7501 C   0  0  0  0  0  4           0  0  0
    1.4648   -0.0000    0.0000 C   0  0  2  0  0  4           0  0  0
    0.9784   -1.8427    5.8961 C   0  0  1  0  0  4           0  0  0
   -0.3060   -0.9938    5.8916 C   0  0  0  0  0  4           0  0  0
    0.9978    0.9411    5.1201 C   0  0  0  0  0  4           0  0  0
    2.2608    0.0761    5.1378 C   0  0  0  0  0  4           0  0  0
   -4.4149   -0.0456    2.3980 C   0  0  0  0  0  4           0  0  0
    2.2636   -0.6393   -1.1073 C   0  0  0  0  0  4           0  0  0
    2.2644   -1.2508    0.2607 C   0  0  0  0  0  4           0  0  0
    0.9083   -2.9190    6.9775 C   0  0  0  0  0  4           0  0  0
  1  8  1  0     0  0
  2  9  2  0     0  0
  3 17  2  0     0  0
  4 17  1  0     0  0
  5 10  1  0     0  0
  5 11  1  0     0  0
  5 18  1  0     0  0
  6 12  1  0     0  0
  6 20  1  0     0  0
  6 21  1  0     0  0
  7 19  1  0     0  0
  7 22  1  0     0  0
  8 12  1  0     0  0
  8 14  2  0     0  0
  9 13  1  0     0  0
  9 15  1  0     0  0
 10 13  2  0     0  0
 10 16  1  0     0  0
 11 15  2  0     0  0
 12 16  2  0     0  0
 13 14  1  0     0  0
 14 23  1  0     0  0
 15 17  1  0     0  0
 18 24  1  0     0  0
 18 25  1  0     0  0
 19 20  1  0     0  0
 19 26  1  0     0  0
 21 22  1  0     0  0
 24 25  1  0     0  0
M  END
> <standard_type>
pIC50

> <# Confs.>
25

> <canonical_smiles>
FC1=C(C)C2=C(N(C3CC3)C=C(C(O)=O)C2=O)C=C1N4CC(C)NCC4

> <standard_relation>
=

> <Publication_ID>
nan

> <predicted_activity_value>
nan

> <actual_activity_value>
-1.6989700043360187

> <Compound>
Grepafloxacin 

> <standard_units>
uM

> hash
8674525557719610595

$$$$
23
XXILIB    08252103503D 0   0.00000     0.00000

 26 29  0     1  0            999 V2000
   -2.9542   -0.0044    4.7148 F   0  0  0  0  0  1           0  0  0
   -4.0378   -0.2097   -0.3020 O   0  0  0  0  0  2           0  0  0
   -1.9029    0.3154   -3.7741 O   0  0  0  0  0  2           0  0  0
   -3.9151    0.1436   -2.7409 O   0  0  0  0  0  2           0  0  0
    0.0000    0.0000    0.0000 N   0  0  1  0  0  3           0  0  0
   -0.1547    0.0720    4.9043 N   0  0  1  0  0  3           0  0  0
    1.1644    0.1641    7.4327 N   0  0  0  0  0  3           0  0  0
   -2.2189    0.0016    3.5893 C   0  0  0  0  0  4           0  0  0
   -2.8274   -0.0619   -0.1831 C   0  0  0  0  0  4           0  0  0
   -0.7524   -0.0000    1.2103 C   0  0  0  0  0  4           0  0  0
   -0.6505    0.0987   -1.2112 C   0  0  0  0  0  4           0  0  0
   -0.8195    0.0370    3.6906 C   0  0  0  0  0  4           0  0  0
   -2.1632   -0.0285    1.1626 C   0  0  0  0  0  4           0  0  0
   -2.9096   -0.0243    2.3598 C   0  0  0  0  0  4           0  0  0
   -1.9759    0.0859   -1.4046 C   0  0  0  0  0  4           0  0  0
   -0.1180    0.0380    2.4712 C   0  0  0  0  0  4           0  0  0
   -2.5613    0.1936   -2.7501 C   0  0  0  0  0  4           0  0  0
    1.4648    0.0000   -0.0000 C   0  0  2  0  0  4           0  0  0
    0.8453   -1.1332    6.8284 C   0  0  1  0  0  4           0  0  0
   -0.3427   -1.0258    5.8604 C   0  0  0  0  0  4           0  0  0
    0.2371    1.3656    5.4726 C   0  0  0  0  0  4           0  0  0
    1.4113    1.2008    6.4349 C   0  0  0  0  0  4           0  0  0
   -4.4149   -0.0456    2.3980 C   0  0  0  0  0  4           0  0  0
    2.2636    1.1073    0.6393 C   0  0  0  0  0  4           0  0  0
    2.2644    0.9529   -0.8512 C   0  0  0  0  0  4           0  0  0
    2.0635   -1.7868    6.1653 C   0  0  0  0  0  4           0  0  0
  1  8  1  0     0  0
  2  9  2  0     0  0
  3 17  2  0     0  0
  4 17  1  0     0  0
  5 10  1  0     0  0
  5 11  1  0     0  0
  5 18  1  0     0  0
  6 12  1  0     0  0
  6 20  1  0     0  0
  6 21  1  0     0  0
  7 19  1  0     0  0
  7 22  1  0     0  0
  8 12  1  0     0  0
  8 14  2  0     0  0
  9 13  1  0     0  0
  9 15  1  0     0  0
 10 13  2  0     0  0
 10 16  1  0     0  0
 11 15  2  0     0  0
 12 16  2  0     0  0
 13 14  1  0     0  0
 14 23  1  0     0  0
 15 17  1  0     0  0
 18 24  1  0     0  0
 18 25  1  0     0  0
 19 20  1  0     0  0
 19 26  1  0     0  0
 21 22  1  0     0  0
 24 25  1  0     0  0
M  END
> <standard_type>
pIC50

> <# Confs.>
25

> <canonical_smiles>
FC1=C(C)C2=C(N(C3CC3)C=C(C(O)=O)C2=O)C=C1N4CC(C)NCC4

> <standard_relation>
=

> <Publication_ID>
nan

> <predicted_activity_value>
nan

> <actual_activity_value>
-1.6989700043360187

> <Compound>
Grepafloxacin 

> <standard_units>
uM

> hash
8674525557719610595

$$$$
23
XXILIB    08252103503D 0   0.00000     0.00000

 26 29  0     1  0            999 V2000
   -2.9542   -0.0044    4.7148 F   0  0  0  0  0  1           0  0  0
   -4.0378   -0.2097   -0.3020 O   0  0  0  0  0  2           0  0  0
   -1.9029    0.3154   -3.7741 O   0  0  0  0  0  2           0  0  0
   -3.9151    0.1436   -2.7409 O   0  0  0  0  0  2           0  0  0
    0.0000    0.0000    0.0000 N   0  0  1  0  0  3           0  0  0
   -0.1551    0.0720    4.9036 N   0  0  1  0  0  3           0  0  0
    1.2107    0.1327    7.4071 N   0  0  0  0  0  3           0  0  0
   -2.2189    0.0016    3.5893 C   0  0  0  0  0  4           0  0  0
   -2.8274   -0.0619   -0.1831 C   0  0  0  0  0  4           0  0  0
   -0.7524   -0.0000    1.2103 C   0  0  0  0  0  4           0  0  0
   -0.6505    0.0987   -1.2112 C   0  0  0  0  0  4           0  0  0
   -0.8195    0.0370    3.6906 C   0  0  0  0  0  4           0  0  0
   -2.1632   -0.0285    1.1626 C   0  0  0  0  0  4           0  0  0
   -2.9096   -0.0243    2.3598 C   0  0  0  0  0  4           0  0  0
   -1.9759    0.0859   -1.4046 C   0  0  0  0  0  4           0  0  0
   -0.1180    0.0380    2.4712 C   0  0  0  0  0  4           0  0  0
   -2.5613    0.1936   -2.7501 C   0  0  0  0  0  4           0  0  0
    1.4648    0.0000   -0.0000 C   0  0  2  0  0  4           0  0  0
    0.8008    1.3908    6.7749 C   0  0  1  0  0  4           0  0  0
   -0.3932    1.1864    5.8290 C   0  0  0  0  0  4           0  0  0
    0.3141   -1.1787    5.5074 C   0  0  0  0  0  4           0  0  0
    1.4994   -0.9156    6.4328 C   0  0  0  0  0  4           0  0  0
   -4.4149   -0.0456    2.3980 C   0  0  0  0  0  4           0  0  0
    2.2636    1.1073    0.6393 C   0  0  0  0  0  4           0  0  0
    2.2644    0.9529   -0.8512 C   0  0  0  0  0  4           0  0  0
    1.9663    2.0970    6.0734 C   0  0  0  0  0  4           0  0  0
  1  8  1  0     0  0
  2  9  2  0     0  0
  3 17  2  0     0  0
  4 17  1  0     0  0
  5 10  1  0     0  0
  5 11  1  0     0  0
  5 18  1  0     0  0
  6 12  1  0     0  0
  6 20  1  0     0  0
  6 21  1  0     0  0
  7 19  1  0     0  0
  7 22  1  0     0  0
  8 12  1  0     0  0
  8 14  2  0     0  0
  9 13  1  0     0  0
  9 15  1  0     0  0
 10 13  2  0     0  0
 10 16  1  0     0  0
 11 15  2  0     0  0
 12 16  2  0     0  0
 13 14  1  0     0  0
 14 23  1  0     0  0
 15 17  1  0     0  0
 18 24  1  0     0  0
 18 25  1  0     0  0
 19 20  1  0     0  0
 19 26  1  0     0  0
 21 22  1  0     0  0
 24 25  1  0     0  0
M  END
> <standard_type>
pIC50

> <# Confs.>
25

> <canonical_smiles>
FC1=C(C)C2=C(N(C3CC3)C=C(C(O)=O)C2=O)C=C1N4CC(C)NCC4

> <standard_relation>
=

> <Publication_ID>
nan

> <predicted_activity_value>
nan

> <actual_activity_value>
-1.6989700043360187

> <Compound>
Grepafloxacin 

> <standard_units>
uM

> hash
8674525557719610595

$$$$
23
XXILIB    08252103503D 0   0.00000     0.00000

 26 29  0     1  0            999 V2000
   -2.9542   -0.0044    4.7148 F   0  0  0  0  0  1           0  0  0
   -4.0378   -0.2097   -0.3020 O   0  0  0  0  0  2           0  0  0
   -1.9029    0.3154   -3.7741 O   0  0  0  0  0  2           0  0  0
   -3.9151    0.1436   -2.7409 O   0  0  0  0  0  2           0  0  0
    0.0000    0.0000    0.0000 N   0  0  1  0  0  3           0  0  0
   -0.1596    0.0717    4.8954 N   0  0  1  0  0  3           0  0  0
    2.1063    1.2157    6.1765 N   0  0  0  0  0  3           0  0  0
   -2.2189    0.0016    3.5893 C   0  0  0  0  0  4           0  0  0
   -2.8274   -0.0619   -0.1831 C   0  0  0  0  0  4           0  0  0
   -0.7524   -0.0000    1.2103 C   0  0  0  0  0  4           0  0  0
   -0.6505    0.0987   -1.2112 C   0  0  0  0  0  4           0  0  0
   -0.8195    0.0370    3.6906 C   0  0  0  0  0  4           0  0  0
   -2.1632   -0.0285    1.1626 C   0  0  0  0  0  4           0  0  0
   -2.9096   -0.0243    2.3598 C   0  0  0  0  0  4           0  0  0
   -1.9759    0.0859   -1.4046 C   0  0  0  0  0  4           0  0  0
   -0.1180    0.0380    2.4712 C   0  0  0  0  0  4           0  0  0
   -2.5613    0.1936   -2.7501 C   0  0  0  0  0  4           0  0  0
    1.4648    0.0000   -0.0000 C   0  0  2  0  0  4           0  0  0
    0.9122    2.0302    5.8871 C   0  0  1  0  0  4           0  0  0
   -0.3561    1.1578    5.8597 C   0  0  0  0  0  4           0  0  0
    1.0109   -0.7661    5.1646 C   0  0  0  0  0  4           0  0  0
    2.2528    0.1281    5.2006 C   0  0  0  0  0  4           0  0  0
   -4.4149   -0.0456    2.3980 C   0  0  0  0  0  4           0  0  0
    2.2636    1.1073    0.6393 C   0  0  0  0  0  4           0  0  0
    2.2644    0.9529   -0.8512 C   0  0  0  0  0  4           0  0  0
    0.7903    3.1280    6.9417 C   0  0  0  0  0  4           0  0  0
  1  8  1  0     0  0
  2  9  2  0     0  0
  3 17  2  0     0  0
  4 17  1  0     0  0
  5 10  1  0     0  0
  5 11  1  0     0  0
  5 18  1  0     0  0
  6 12  1  0     0  0
  6 20  1  0     0  0
  6 21  1  0     0  0
  7 19  1  0     0  0
  7 22  1  0     0  0
  8 12  1  0     0  0
  8 14  2  0     0  0
  9 13  1  0     0  0
  9 15  1  0     0  0
 10 13  2  0     0  0
 10 16  1  0     0  0
 11 15  2  0     0  0
 12 16  2  0     0  0
 13 14  1  0     0  0
 14 23  1  0     0  0
 15 17  1  0     0  0
 18 24  1  0     0  0
 18 25  1  0     0  0
 19 20  1  0     0  0
 19 26  1  0     0  0
 21 22  1  0     0  0
 24 25  1  0     0  0
M  END
> <standard_type>
pIC50

> <# Confs.>
25

> <canonical_smiles>
FC1=C(C)C2=C(N(C3CC3)C=C(C(O)=O)C2=O)C=C1N4CC(C)NCC4

> <standard_relation>
=

> <Publication_ID>
nan

> <predicted_activity_value>
nan

> <actual_activity_value>
-1.6989700043360187

> <Compound>
Grepafloxacin 

> <standard_units>
uM

> hash
8674525557719610595

$$$$
23
XXILIB    08252103503D 0   0.00000     0.00000

 26 29  0     1  0            999 V2000
   -2.9542   -0.0044    4.7148 F   0  0  0  0  0  1           0  0  0
   -4.0378   -0.2097   -0.3020 O   0  0  0  0  0  2           0  0  0
   -1.9029    0.3154   -3.7741 O   0  0  0  0  0  2           0  0  0
   -3.9151    0.1436   -2.7409 O   0  0  0  0  0  2           0  0  0
    0.0000    0.0000    0.0000 N   0  0  1  0  0  3           0  0  0
   -0.1592    0.0717    4.8962 N   0  0  1  0  0  3           0  0  0
    2.1663   -1.0015    6.1315 N   0  0  0  0  0  3           0  0  0
   -2.2189    0.0016    3.5893 C   0  0  0  0  0  4           0  0  0
   -2.8274   -0.0619   -0.1831 C   0  0  0  0  0  4           0  0  0
   -0.7524   -0.0000    1.2103 C   0  0  0  0  0  4           0  0  0
   -0.6505    0.0987   -1.2112 C   0  0  0  0  0  4           0  0  0
   -0.8195    0.0370    3.6906 C   0  0  0  0  0  4           0  0  0
   -2.1632   -0.0285    1.1626 C   0  0  0  0  0  4           0  0  0
   -2.9096   -0.0243    2.3598 C   0  0  0  0  0  4           0  0  0
   -1.9759    0.0859   -1.4046 C   0  0  0  0  0  4           0  0  0
   -0.1180    0.0380    2.4712 C   0  0  0  0  0  4           0  0  0
   -2.5613    0.1936   -2.7501 C   0  0  0  0  0  4           0  0  0
    1.4648    0.0000   -0.0000 C   0  0  2  0  0  4           0  0  0
    0.9784   -1.8427    5.8961 C   0  0  1  0  0  4           0  0  0
   -0.3060   -0.9938    5.8916 C   0  0  0  0  0  4           0  0  0
    0.9978    0.9411    5.1201 C   0  0  0  0  0  4           0  0  0
    2.2608    0.0761    5.1378 C   0  0  0  0  0  4           0  0  0
   -4.4149   -0.0456    2.3980 C   0  0  0  0  0  4           0  0  0
    2.2636    1.1073    0.6393 C   0  0  0  0  0  4           0  0  0
    2.2644    0.9529   -0.8512 C   0  0  0  0  0  4           0  0  0
    0.9083   -2.9190    6.9775 C   0  0  0  0  0  4           0  0  0
  1  8  1  0     0  0
  2  9  2  0     0  0
  3 17  2  0     0  0
  4 17  1  0     0  0
  5 10  1  0     0  0
  5 11  1  0     0  0
  5 18  1  0     0  0
  6 12  1  0     0  0
  6 20  1  0     0  0
  6 21  1  0     0  0
  7 19  1  0     0  0
  7 22  1  0     0  0
  8 12  1  0     0  0
  8 14  2  0     0  0
  9 13  1  0     0  0
  9 15  1  0     0  0
 10 13  2  0     0  0
 10 16  1  0     0  0
 11 15  2  0     0  0
 12 16  2  0     0  0
 13 14  1  0     0  0
 14 23  1  0     0  0
 15 17  1  0     0  0
 18 24  1  0     0  0
 18 25  1  0     0  0
 19 20  1  0     0  0
 19 26  1  0     0  0
 21 22  1  0     0  0
 24 25  1  0     0  0
M  END
> <standard_type>
pIC50

> <# Confs.>
25

> <canonical_smiles>
FC1=C(C)C2=C(N(C3CC3)C=C(C(O)=O)C2=O)C=C1N4CC(C)NCC4

> <standard_relation>
=

> <Publication_ID>
nan

> <predicted_activity_value>
nan

> <actual_activity_value>
-1.6989700043360187

> <Compound>
Grepafloxacin 

> <standard_units>
uM

> hash
8674525557719610595

$$$$
23
XXILIB    08252103503D 0   0.00000     0.00000

 26 29  0     1  0            999 V2000
   -2.9542   -0.0044    4.7148 F   0  0  0  0  0  1           0  0  0
   -4.0378   -0.2097   -0.3020 O   0  0  0  0  0  2           0  0  0
   -1.9029    0.3154   -3.7741 O   0  0  0  0  0  2           0  0  0
   -3.9151    0.1436   -2.7409 O   0  0  0  0  0  2           0  0  0
    0.0000    0.0000    0.0000 N   0  0  1  0  0  3           0  0  0
   -0.1579    0.0718    4.8985 N   0  0  1  0  0  3           0  0  0
    0.7291    0.6412    7.5475 N   0  0  0  0  0  3           0  0  0
   -2.2189    0.0016    3.5893 C   0  0  0  0  0  4           0  0  0
   -2.8274   -0.0619   -0.1831 C   0  0  0  0  0  4           0  0  0
   -0.7524   -0.0000    1.2103 C   0  0  0  0  0  4           0  0  0
   -0.6505    0.0987   -1.2112 C   0  0  0  0  0  4           0  0  0
   -0.8195    0.0370    3.6906 C   0  0  0  0  0  4           0  0  0
   -2.1632   -0.0285    1.1626 C   0  0  0  0  0  4           0  0  0
   -2.9096   -0.0243    2.3598 C   0  0  0  0  0  4           0  0  0
   -1.9759    0.0859   -1.4046 C   0  0  0  0  0  4           0  0  0
   -0.1180    0.0380    2.4712 C   0  0  0  0  0  4           0  0  0
   -2.5613    0.1936   -2.7501 C   0  0  0  0  0  4           0  0  0
    1.4648   -0.0000    0.0000 C   0  0  2  0  0  4           0  0  0
    1.2575    1.4172    6.4204 C   0  0  1  0  0  4           0  0  0
    1.1413    0.7277    5.0462 C   0  0  0  0  0  4           0  0  0
   -0.6749   -0.6879    6.0389 C   0  0  0  0  0  4           0  0  0
    0.3349   -0.7128    7.1858 C   0  0  0  0  0  4           0  0  0
   -4.4149   -0.0456    2.3980 C   0  0  0  0  0  4           0  0  0
    2.2636   -1.1073   -0.6393 C   0  0  0  0  0  4           0  0  0
    2.2644   -0.9529    0.8512 C   0  0  0  0  0  4           0  0  0
    0.5436    2.7705    6.4213 C   0  0  0  0  0  4           0  0  0
  1  8  1  0     0  0
  2  9  2  0     0  0
  3 17  2  0     0  0
  4 17  1  0     0  0
  5 10  1  0     0  0
  5 11  1  0     0  0
  5 18  1  0     0  0
  6 12  1  0     0  0
  6 20  1  0     0  0
  6 21  1  0     0  0
  7 19  1  0     0  0
  7 22  1  0     0  0
  8 12  1  0     0  0
  8 14  2  0     0  0
  9 13  1  0     0  0
  9 15  1  0     0  0
 10 13  2  0     0  0
 10 16  1  0     0  0
 11 15  2  0     0  0
 12 16  2  0     0  0
 13 14  1  0     0  0
 14 23  1  0     0  0
 15 17  1  0     0  0
 18 24  1  0     0  0
 18 25  1  0     0  0
 19 20  1  0     0  0
 19 26  1  0     0  0
 21 22  1  0     0  0
 24 25  1  0     0  0
M  END
> <standard_type>
pIC50

> <# Confs.>
25

> <canonical_smiles>
FC1=C(C)C2=C(N(C3CC3)C=C(C(O)=O)C2=O)C=C1N4CC(C)NCC4

> <standard_relation>
=

> <Publication_ID>
nan

> <predicted_activity_value>
nan

> <actual_activity_value>
-1.6989700043360187

> <Compound>
Grepafloxacin 

> <standard_units>
uM

> hash
8674525557719610595

$$$$
2
XXILIB    08252103503D 0   0.00000     0.00000

 34 38  0     1  0            999 V2000
    5.5565   -1.4211    5.3877 F   0  0  0  0  0  1           0  0  0
  -10.1967   -3.0054    0.9615 O   0  0  0  0  0  2           0  0  0
    3.5413    1.1222   -0.0000 N   0  0  0  0  0  3           0  0  0
    1.7169    2.3902   -0.0073 N   0  0  0  0  0  3           0  0  0
    1.4463    0.0000    0.0000 N   0  0  0  0  0  3           0  0  0
   -2.4760   -1.3862    0.7721 N   0  0  2  0  0  3           0  0  0
    5.2831   -1.0986    4.1159 C   0  0  0  0  0  4           0  0  0
   -8.8605   -2.9019    0.6969 C   0  0  0  0  0  4           0  0  0
    2.1585    1.1455    0.0000 C   0  0  0  0  0  4           0  0  0
    3.9911    2.4255   -0.0290 C   0  0  0  0  0  4           0  0  0
    2.8301    3.1916   -0.0260 C   0  0  0  0  0  4           0  0  0
    4.7136   -0.4273    1.4670 C   0  0  0  0  0  4           0  0  0
   -6.0639   -2.8243    0.3706 C   0  0  0  0  0  4           0  0  0
    4.1708   -1.6543    3.4929 C   0  0  0  0  0  4           0  0  0
    6.1145   -0.2115    3.4405 C   0  0  0  0  0  4           0  0  0
   -8.0186   -3.4942    1.6434 C   0  0  0  0  0  4           0  0  0
   -8.2988   -2.2638   -0.4119 C   0  0  0  0  0  4           0  0  0
    5.2686    2.9973   -0.0575 C   0  0  0  0  0  4           0  0  0
    2.9243    4.5936   -0.0428 C   0  0  0  0  0  4           0  0  0
    3.8857   -1.3159    2.1704 C   0  0  0  0  0  4           0  0  0
    5.8284    0.1242    2.1172 C   0  0  0  0  0  4           0  0  0
   -6.6316   -3.4545    1.4837 C   0  0  0  0  0  4           0  0  0
   -6.9096   -2.2252   -0.5707 C   0  0  0  0  0  4           0  0  0
    5.3461    4.3935   -0.0738 C   0  0  0  0  0  4           0  0  0
    4.1944    5.1803   -0.0646 C   0  0  0  0  0  4           0  0  0
  -11.0580   -2.4026   -0.0017 C   0  0  0  0  0  4           0  0  0
    4.3929   -0.0506    0.0526 C   0  0  0  0  0  4           0  0  0
    0.0000    0.0000    0.0000 C   0  0  2  0  0  4           0  0  0
   -3.9306   -1.5362    0.8767 C   0  0  0  0  0  4           0  0  0
   -2.0482   -0.1625    1.4696 C   0  0  0  0  0  4           0  0  0
   -2.0319   -1.3683   -0.6316 C   0  0  0  0  0  4           0  0  0
   -4.5724   -2.7613    0.2073 C   0  0  0  0  0  4           0  0  0
   -0.5276    0.0000    1.4370 C   0  0  0  0  0  4           0  0  0
   -0.5097   -1.2438   -0.7337 C   0  0  0  0  0  4           0  0  0
  1  7  1  0     0  0
  2  8  1  0     0  0
  2 26  1  0     0  0
  3  9  1  0     0  0
  3 10  1  0     0  0
  3 27  1  0     0  0
  4  9  2  0     0  0
  4 11  1  0     0  0
  5  9  1  0     0  0
  5 28  1  0     0  0
  6 29  1  0     0  0
  6 30  1  0     0  0
  6 31  1  0     0  0
  7 14  1  0     0  0
  7 15  2  0     0  0
  8 16  2  0     0  0
  8 17  1  0     0  0
 10 11  1  0     0  0
 10 18  2  0     0  0
 11 19  2  0     0  0
 12 20  1  0     0  0
 12 21  2  0     0  0
 12 27  1  0     0  0
 13 22  2  0     0  0
 13 23  1  0     0  0
 13 32  1  0     0  0
 14 20  2  0     0  0
 15 21  1  0     0  0
 16 22  1  0     0  0
 17 23  2  0     0  0
 18 24  1  0     0  0
 19 25  1  0     0  0
 24 25  2  0     0  0
 28 33  1  0     0  0
 28 34  1  0     0  0
 29 32  1  0     0  0
 30 33  1  0     0  0
 31 34  1  0     0  0
M  END
> <standard_type>
pIC50

> <# Confs.>
25

> <canonical_smiles>
FC(C=C1)=CC=C1CN2C(NC3CCN(CCC4=CC=C(OC)C=C4)CC3)=NC5=CC=CC=C52

> <standard_relation>
=

> <Publication_ID>
nan

> <predicted_activity_value>
nan

> <actual_activity_value>
2.0457574905606752

> <Compound>
Astemizole

> <standard_units>
uM

> hash
12836115100580538398

$$$$
2
XXILIB    08252103503D 0   0.00000     0.00000

 34 38  0     1  0            999 V2000
    5.5565    3.9553    3.9246 F   0  0  0  0  0  1           0  0  0
  -10.1967   -3.0054    0.9615 O   0  0  0  0  0  2           0  0  0
    3.5413    0.5611   -0.9719 N   0  0  0  0  0  3           0  0  0
    1.7169    1.1888   -2.0736 N   0  0  0  0  0  3           0  0  0
    1.4463    0.0000    0.0000 N   0  0  0  0  0  3           0  0  0
   -2.4760   -1.3862    0.7721 N   0  0  2  0  0  3           0  0  0
    5.2831    3.0152    3.0094 C   0  0  0  0  0  4           0  0  0
   -8.8605   -2.9019    0.6969 C   0  0  0  0  0  4           0  0  0
    2.1585    0.5728   -0.9920 C   0  0  0  0  0  4           0  0  0
    3.9911    1.1876   -2.1150 C   0  0  0  0  0  4           0  0  0
    2.8301    1.5733   -2.7770 C   0  0  0  0  0  4           0  0  0
    4.7136    1.0568    1.1035 C   0  0  0  0  0  4           0  0  0
   -6.0639   -2.8243    0.3706 C   0  0  0  0  0  4           0  0  0
    4.1708    2.1977    3.1791 C   0  0  0  0  0  4           0  0  0
    6.1145    2.8738    1.9034 C   0  0  0  0  0  4           0  0  0
   -8.0186   -3.4942    1.6434 C   0  0  0  0  0  4           0  0  0
   -8.2988   -2.2638   -0.4119 C   0  0  0  0  0  4           0  0  0
    5.2686    1.4488   -2.6245 C   0  0  0  0  0  4           0  0  0
    2.9243    2.2597   -3.9996 C   0  0  0  0  0  4           0  0  0
    3.8857    1.2217    2.2248 C   0  0  0  0  0  4           0  0  0
    5.8284    1.8956    0.9510 C   0  0  0  0  0  4           0  0  0
   -6.6316   -3.4545    1.4837 C   0  0  0  0  0  4           0  0  0
   -6.9096   -2.2252   -0.5707 C   0  0  0  0  0  4           0  0  0
    5.3461    2.1328   -3.8418 C   0  0  0  0  0  4           0  0  0
    4.1944    2.5342   -4.5186 C   0  0  0  0  0  4           0  0  0
  -11.0580   -2.4026   -0.0017 C   0  0  0  0  0  4           0  0  0
    4.3929    0.0203    0.0701 C   0  0  0  0  0  4           0  0  0
    0.0000    0.0000    0.0000 C   0  0  2  0  0  4           0  0  0
   -3.9306   -1.5362    0.8767 C   0  0  0  0  0  4           0  0  0
   -2.0482   -0.1625    1.4696 C   0  0  0  0  0  4           0  0  0
   -2.0319   -1.3683   -0.6316 C   0  0  0  0  0  4           0  0  0
   -4.5724   -2.7613    0.2073 C   0  0  0  0  0  4           0  0  0
   -0.5276    0.0000    1.4370 C   0  0  0  0  0  4           0  0  0
   -0.5097   -1.2438   -0.7337 C   0  0  0  0  0  4           0  0  0
  1  7  1  0     0  0
  2  8  1  0     0  0
  2 26  1  0     0  0
  3  9  1  0     0  0
  3 10  1  0     0  0
  3 27  1  0     0  0
  4  9  2  0     0  0
  4 11  1  0     0  0
  5  9  1  0     0  0
  5 28  1  0     0  0
  6 29  1  0     0  0
  6 30  1  0     0  0
  6 31  1  0     0  0
  7 14  1  0     0  0
  7 15  2  0     0  0
  8 16  2  0     0  0
  8 17  1  0     0  0
 10 11  1  0     0  0
 10 18  2  0     0  0
 11 19  2  0     0  0
 12 20  1  0     0  0
 12 21  2  0     0  0
 12 27  1  0     0  0
 13 22  2  0     0  0
 13 23  1  0     0  0
 13 32  1  0     0  0
 14 20  2  0     0  0
 15 21  1  0     0  0
 16 22  1  0     0  0
 17 23  2  0     0  0
 18 24  1  0     0  0
 19 25  1  0     0  0
 24 25  2  0     0  0
 28 33  1  0     0  0
 28 34  1  0     0  0
 29 32  1  0     0  0
 30 33  1  0     0  0
 31 34  1  0     0  0
M  END
> <standard_type>
pIC50

> <# Confs.>
25

> <canonical_smiles>
FC(C=C1)=CC=C1CN2C(NC3CCN(CCC4=CC=C(OC)C=C4)CC3)=NC5=CC=CC=C52

> <standard_relation>
=

> <Publication_ID>
nan

> <predicted_activity_value>
nan

> <actual_activity_value>
2.0457574905606752

> <Compound>
Astemizole

> <standard_units>
uM

> hash
12836115100580538398

$$$$
2
XXILIB    08252103503D 0   0.00000     0.00000

 34 38  0     1  0            999 V2000
    5.5565   -1.4211    5.3877 F   0  0  0  0  0  1           0  0  0
  -10.2001   -2.0941    2.2228 O   0  0  0  0  0  2           0  0  0
    3.5413    1.1222   -0.0000 N   0  0  0  0  0  3           0  0  0
    1.7169    2.3902   -0.0073 N   0  0  0  0  0  3           0  0  0
    1.4463    0.0000    0.0000 N   0  0  0  0  0  3           0  0  0
   -2.4760   -1.3862    0.7721 N   0  0  2  0  0  3           0  0  0
    5.2831   -1.0986    4.1159 C   0  0  0  0  0  4           0  0  0
   -8.8342   -2.0826    2.2397 C   0  0  0  0  0  4           0  0  0
    2.1585    1.1455    0.0000 C   0  0  0  0  0  4           0  0  0
    3.9911    2.4255   -0.0290 C   0  0  0  0  0  4           0  0  0
    2.8301    3.1916   -0.0260 C   0  0  0  0  0  4           0  0  0
    4.7136   -0.4273    1.4670 C   0  0  0  0  0  4           0  0  0
   -6.0322   -1.7984    2.2839 C   0  0  0  0  0  4           0  0  0
    4.1708   -1.6543    3.4929 C   0  0  0  0  0  4           0  0  0
    6.1145   -0.2115    3.4405 C   0  0  0  0  0  4           0  0  0
   -8.2498   -0.8126    2.2743 C   0  0  0  0  0  4           0  0  0
   -8.0118   -3.2120    2.2205 C   0  0  0  0  0  4           0  0  0
    5.2686    2.9973   -0.0575 C   0  0  0  0  0  4           0  0  0
    2.9243    4.5936   -0.0428 C   0  0  0  0  0  4           0  0  0
    3.8857   -1.3159    2.1704 C   0  0  0  0  0  4           0  0  0
    5.8284    0.1242    2.1172 C   0  0  0  0  0  4           0  0  0
   -6.8605   -0.6704    2.2942 C   0  0  0  0  0  4           0  0  0
   -6.6207   -3.0681    2.2408 C   0  0  0  0  0  4           0  0  0
    5.3461    4.3935   -0.0738 C   0  0  0  0  0  4           0  0  0
    4.1944    5.1803   -0.0646 C   0  0  0  0  0  4           0  0  0
  -10.7991   -3.3874    2.1875 C   0  0  0  0  0  4           0  0  0
    4.3929   -0.0506    0.0526 C   0  0  0  0  0  4           0  0  0
   -0.0000    0.0000    0.0000 C   0  0  2  0  0  4           0  0  0
   -3.9306   -1.5362    0.8767 C   0  0  0  0  0  4           0  0  0
   -2.0482   -0.1625    1.4696 C   0  0  0  0  0  4           0  0  0
   -2.0319   -1.3683   -0.6316 C   0  0  0  0  0  4           0  0  0
   -4.5380   -1.6481    2.2835 C   0  0  0  0  0  4           0  0  0
   -0.5276    0.0000    1.4370 C   0  0  0  0  0  4           0  0  0
   -0.5097   -1.2438   -0.7337 C   0  0  0  0  0  4           0  0  0
  1  7  1  0     0  0
  2  8  1  0     0  0
  2 26  1  0     0  0
  3  9  1  0     0  0
  3 10  1  0     0  0
  3 27  1  0     0  0
  4  9  2  0     0  0
  4 11  1  0     0  0
  5  9  1  0     0  0
  5 28  1  0     0  0
  6 29  1  0     0  0
  6 30  1  0     0  0
  6 31  1  0     0  0
  7 14  1  0     0  0
  7 15  2  0     0  0
  8 16  2  0     0  0
  8 17  1  0     0  0
 10 11  1  0     0  0
 10 18  2  0     0  0
 11 19  2  0     0  0
 12 20  1  0     0  0
 12 21  2  0     0  0
 12 27  1  0     0  0
 13 22  2  0     0  0
 13 23  1  0     0  0
 13 32  1  0     0  0
 14 20  2  0     0  0
 15 21  1  0     0  0
 16 22  1  0     0  0
 17 23  2  0     0  0
 18 24  1  0     0  0
 19 25  1  0     0  0
 24 25  2  0     0  0
 28 33  1  0     0  0
 28 34  1  0     0  0
 29 32  1  0     0  0
 30 33  1  0     0  0
 31 34  1  0     0  0
M  END
> <standard_type>
pIC50

> <# Confs.>
25

> <canonical_smiles>
FC(C=C1)=CC=C1CN2C(NC3CCN(CCC4=CC=C(OC)C=C4)CC3)=NC5=CC=CC=C52

> <standard_relation>
=

> <Publication_ID>
nan

> <predicted_activity_value>
nan

> <actual_activity_value>
2.0457574905606752

> <Compound>
Astemizole

> <standard_units>
uM

> hash
12836115100580538398

$$$$
2
XXILIB    08252103503D 0   0.00000     0.00000

 34 38  0     1  0            999 V2000
    5.5565    1.4631    5.3764 F   0  0  0  0  0  1           0  0  0
  -10.2272   -2.9932    0.6880 O   0  0  0  0  0  2           0  0  0
    3.5413    0.9719   -0.5611 N   0  0  0  0  0  3           0  0  0
    1.7169    2.0663   -1.2014 N   0  0  0  0  0  3           0  0  0
    1.4463    0.0000    0.0000 N   0  0  0  0  0  3           0  0  0
   -2.4760   -1.3862    0.7721 N   0  0  2  0  0  3           0  0  0
    5.2831    1.1065    4.1138 C   0  0  0  0  0  4           0  0  0
   -8.8615   -2.9827    0.6567 C   0  0  0  0  0  4           0  0  0
    2.1585    0.9920   -0.5728 C   0  0  0  0  0  4           0  0  0
    3.9911    2.0860   -1.2379 C   0  0  0  0  0  4           0  0  0
    2.8301    2.7510   -1.6183 C   0  0  0  0  0  4           0  0  0
    4.7136    0.3635    1.4841 C   0  0  0  0  0  4           0  0  0
   -6.0639   -2.8243    0.3706 C   0  0  0  0  0  4           0  0  0
    4.1708    0.3138    3.8520 C   0  0  0  0  0  4           0  0  0
    6.1145    1.5371    3.0853 C   0  0  0  0  0  4           0  0  0
   -8.2962   -2.3310   -0.4438 C   0  0  0  0  0  4           0  0  0
   -8.0224   -3.5617    1.6121 C   0  0  0  0  0  4           0  0  0
    5.2686    2.5670   -1.5484 C   0  0  0  0  0  4           0  0  0
    2.9243    3.9568   -2.3339 C   0  0  0  0  0  4           0  0  0
    3.8857   -0.0544    2.5376 C   0  0  0  0  0  4           0  0  0
    5.8284    1.1661    1.7714 C   0  0  0  0  0  4           0  0  0
   -6.9090   -2.2536   -0.5879 C   0  0  0  0  0  4           0  0  0
   -6.6335   -3.4831    1.4668 C   0  0  0  0  0  4           0  0  0
    5.3461    3.7680   -2.2607 C   0  0  0  0  0  4           0  0  0
    4.1944    4.4540   -2.6462 C   0  0  0  0  0  4           0  0  0
  -10.8068   -3.6568    1.8089 C   0  0  0  0  0  4           0  0  0
    4.3929   -0.0175    0.0709 C   0  0  0  0  0  4           0  0  0
    0.0000    0.0000    0.0000 C   0  0  2  0  0  4           0  0  0
   -3.9306   -1.5362    0.8767 C   0  0  0  0  0  4           0  0  0
   -2.0482   -0.1625    1.4696 C   0  0  0  0  0  4           0  0  0
   -2.0319   -1.3683   -0.6316 C   0  0  0  0  0  4           0  0  0
   -4.5724   -2.7613    0.2073 C   0  0  0  0  0  4           0  0  0
   -0.5276    0.0000    1.4370 C   0  0  0  0  0  4           0  0  0
   -0.5097   -1.2438   -0.7337 C   0  0  0  0  0  4           0  0  0
  1  7  1  0     0  0
  2  8  1  0     0  0
  2 26  1  0     0  0
  3  9  1  0     0  0
  3 10  1  0     0  0
  3 27  1  0     0  0
  4  9  2  0     0  0
  4 11  1  0     0  0
  5  9  1  0     0  0
  5 28  1  0     0  0
  6 29  1  0     0  0
  6 30  1  0     0  0
  6 31  1  0     0  0
  7 14  1  0     0  0
  7 15  2  0     0  0
  8 16  2  0     0  0
  8 17  1  0     0  0
 10 11  1  0     0  0
 10 18  2  0     0  0
 11 19  2  0     0  0
 12 20  1  0     0  0
 12 21  2  0     0  0
 12 27  1  0     0  0
 13 22  2  0     0  0
 13 23  1  0     0  0
 13 32  1  0     0  0
 14 20  2  0     0  0
 15 21  1  0     0  0
 16 22  1  0     0  0
 17 23  2  0     0  0
 18 24  1  0     0  0
 19 25  1  0     0  0
 24 25  2  0     0  0
 28 33  1  0     0  0
 28 34  1  0     0  0
 29 32  1  0     0  0
 30 33  1  0     0  0
 31 34  1  0     0  0
M  END
> <standard_type>
pIC50

> <# Confs.>
25

> <canonical_smiles>
FC(C=C1)=CC=C1CN2C(NC3CCN(CCC4=CC=C(OC)C=C4)CC3)=NC5=CC=CC=C52

> <standard_relation>
=

> <Publication_ID>
nan

> <predicted_activity_value>
nan

> <actual_activity_value>
2.0457574905606752

> <Compound>
Astemizole

> <standard_units>
uM

> hash
12836115100580538398

$$$$
2
XXILIB    08252103503D 0   0.00000     0.00000

 34 38  0     1  0            999 V2000
    5.5607   -5.3952   -0.9320 F   0  0  0  0  0  1           0  0  0
  -10.1967   -3.0054    0.9615 O   0  0  0  0  0  2           0  0  0
    3.5413    0.5611   -0.9719 N   0  0  0  0  0  3           0  0  0
    1.7169    1.1888   -2.0736 N   0  0  0  0  0  3           0  0  0
    1.4463    0.0000    0.0000 N   0  0  0  0  0  3           0  0  0
   -2.4760   -1.3862    0.7721 N   0  0  2  0  0  3           0  0  0
    5.2851   -4.1064   -0.6885 C   0  0  0  0  0  4           0  0  0
   -8.8605   -2.9019    0.6969 C   0  0  0  0  0  4           0  0  0
    2.1585    0.5728   -0.9920 C   0  0  0  0  0  4           0  0  0
    3.9911    1.1876   -2.1150 C   0  0  0  0  0  4           0  0  0
    2.8301    1.5733   -2.7770 C   0  0  0  0  0  4           0  0  0
    4.7114   -1.4221   -0.1813 C   0  0  0  0  0  4           0  0  0
   -6.0639   -2.8243    0.3706 C   0  0  0  0  0  4           0  0  0
    6.1315   -3.1201   -1.1835 C   0  0  0  0  0  4           0  0  0
    4.1558   -3.7759    0.0530 C   0  0  0  0  0  4           0  0  0
   -8.0186   -3.4942    1.6434 C   0  0  0  0  0  4           0  0  0
   -8.2988   -2.2638   -0.4119 C   0  0  0  0  0  4           0  0  0
    5.2686    1.4488   -2.6245 C   0  0  0  0  0  4           0  0  0
    2.9243    2.2597   -3.9996 C   0  0  0  0  0  4           0  0  0
    5.8423   -1.7793   -0.9320 C   0  0  0  0  0  4           0  0  0
    3.8694   -2.4341    0.3050 C   0  0  0  0  0  4           0  0  0
   -6.6316   -3.4545    1.4837 C   0  0  0  0  0  4           0  0  0
   -6.9096   -2.2252   -0.5707 C   0  0  0  0  0  4           0  0  0
    5.3461    2.1328   -3.8418 C   0  0  0  0  0  4           0  0  0
    4.1944    2.5342   -4.5186 C   0  0  0  0  0  4           0  0  0
  -11.0580   -2.4026   -0.0017 C   0  0  0  0  0  4           0  0  0
    4.3929    0.0203    0.0701 C   0  0  0  0  0  4           0  0  0
    0.0000    0.0000    0.0000 C   0  0  2  0  0  4           0  0  0
   -3.9306   -1.5362    0.8767 C   0  0  0  0  0  4           0  0  0
   -2.0482   -0.1625    1.4696 C   0  0  0  0  0  4           0  0  0
   -2.0319   -1.3683   -0.6316 C   0  0  0  0  0  4           0  0  0
   -4.5724   -2.7613    0.2073 C   0  0  0  0  0  4           0  0  0
   -0.5276    0.0000    1.4370 C   0  0  0  0  0  4           0  0  0
   -0.5097   -1.2438   -0.7337 C   0  0  0  0  0  4           0  0  0
  1  7  1  0     0  0
  2  8  1  0     0  0
  2 26  1  0     0  0
  3  9  1  0     0  0
  3 10  1  0     0  0
  3 27  1  0     0  0
  4  9  2  0     0  0
  4 11  1  0     0  0
  5  9  1  0     0  0
  5 28  1  0     0  0
  6 29  1  0     0  0
  6 30  1  0     0  0
  6 31  1  0     0  0
  7 14  1  0     0  0
  7 15  2  0     0  0
  8 16  2  0     0  0
  8 17  1  0     0  0
 10 11  1  0     0  0
 10 18  2  0     0  0
 11 19  2  0     0  0
 12 20  1  0     0  0
 12 21  2  0     0  0
 12 27  1  0     0  0
 13 22  2  0     0  0
 13 23  1  0     0  0
 13 32  1  0     0  0
 14 20  2  0     0  0
 15 21  1  0     0  0
 16 22  1  0     0  0
 17 23  2  0     0  0
 18 24  1  0     0  0
 19 25  1  0     0  0
 24 25  2  0     0  0
 28 33  1  0     0  0
 28 34  1  0     0  0
 29 32  1  0     0  0
 30 33  1  0     0  0
 31 34  1  0     0  0
M  END
> <standard_type>
pIC50

> <# Confs.>
25

> <canonical_smiles>
FC(C=C1)=CC=C1CN2C(NC3CCN(CCC4=CC=C(OC)C=C4)CC3)=NC5=CC=CC=C52

> <standard_relation>
=

> <Publication_ID>
nan

> <predicted_activity_value>
nan

> <actual_activity_value>
2.0457574905606752

> <Compound>
Astemizole

> <standard_units>
uM

> hash
12836115100580538398

$$$$
2
XXILIB    08252103503D 0   0.00000     0.00000

 34 38  0     1  0            999 V2000
    5.5565    3.9553    3.9246 F   0  0  0  0  0  1           0  0  0
  -10.2001   -2.0941    2.2228 O   0  0  0  0  0  2           0  0  0
    3.5413    0.5611   -0.9719 N   0  0  0  0  0  3           0  0  0
    1.7169    1.1888   -2.0736 N   0  0  0  0  0  3           0  0  0
    1.4463    0.0000    0.0000 N   0  0  0  0  0  3           0  0  0
   -2.4760   -1.3862    0.7721 N   0  0  2  0  0  3           0  0  0
    5.2831    3.0152    3.0094 C   0  0  0  0  0  4           0  0  0
   -8.8342   -2.0826    2.2397 C   0  0  0  0  0  4           0  0  0
    2.1585    0.5728   -0.9920 C   0  0  0  0  0  4           0  0  0
    3.9911    1.1876   -2.1150 C   0  0  0  0  0  4           0  0  0
    2.8301    1.5733   -2.7770 C   0  0  0  0  0  4           0  0  0
    4.7136    1.0568    1.1035 C   0  0  0  0  0  4           0  0  0
   -6.0322   -1.7984    2.2839 C   0  0  0  0  0  4           0  0  0
    4.1708    2.1977    3.1791 C   0  0  0  0  0  4           0  0  0
    6.1145    2.8738    1.9034 C   0  0  0  0  0  4           0  0  0
   -8.2498   -0.8126    2.2743 C   0  0  0  0  0  4           0  0  0
   -8.0118   -3.2120    2.2205 C   0  0  0  0  0  4           0  0  0
    5.2686    1.4488   -2.6245 C   0  0  0  0  0  4           0  0  0
    2.9243    2.2597   -3.9996 C   0  0  0  0  0  4           0  0  0
    3.8857    1.2217    2.2248 C   0  0  0  0  0  4           0  0  0
    5.8284    1.8956    0.9510 C   0  0  0  0  0  4           0  0  0
   -6.8605   -0.6704    2.2942 C   0  0  0  0  0  4           0  0  0
   -6.6207   -3.0681    2.2408 C   0  0  0  0  0  4           0  0  0
    5.3461    2.1328   -3.8418 C   0  0  0  0  0  4           0  0  0
    4.1944    2.5342   -4.5186 C   0  0  0  0  0  4           0  0  0
  -10.7991   -3.3874    2.1875 C   0  0  0  0  0  4           0  0  0
    4.3929    0.0203    0.0701 C   0  0  0  0  0  4           0  0  0
   -0.0000    0.0000    0.0000 C   0  0  2  0  0  4           0  0  0
   -3.9306   -1.5362    0.8767 C   0  0  0  0  0  4           0  0  0
   -2.0482   -0.1625    1.4696 C   0  0  0  0  0  4           0  0  0
   -2.0319   -1.3683   -0.6316 C   0  0  0  0  0  4           0  0  0
   -4.5380   -1.6481    2.2835 C   0  0  0  0  0  4           0  0  0
   -0.5276    0.0000    1.4370 C   0  0  0  0  0  4           0  0  0
   -0.5097   -1.2438   -0.7337 C   0  0  0  0  0  4           0  0  0
  1  7  1  0     0  0
  2  8  1  0     0  0
  2 26  1  0     0  0
  3  9  1  0     0  0
  3 10  1  0     0  0
  3 27  1  0     0  0
  4  9  2  0     0  0
  4 11  1  0     0  0
  5  9  1  0     0  0
  5 28  1  0     0  0
  6 29  1  0     0  0
  6 30  1  0     0  0
  6 31  1  0     0  0
  7 14  1  0     0  0
  7 15  2  0     0  0
  8 16  2  0     0  0
  8 17  1  0     0  0
 10 11  1  0     0  0
 10 18  2  0     0  0
 11 19  2  0     0  0
 12 20  1  0     0  0
 12 21  2  0     0  0
 12 27  1  0     0  0
 13 22  2  0     0  0
 13 23  1  0     0  0
 13 32  1  0     0  0
 14 20  2  0     0  0
 15 21  1  0     0  0
 16 22  1  0     0  0
 17 23  2  0     0  0
 18 24  1  0     0  0
 19 25  1  0     0  0
 24 25  2  0     0  0
 28 33  1  0     0  0
 28 34  1  0     0  0
 29 32  1  0     0  0
 30 33  1  0     0  0
 31 34  1  0     0  0
M  END
> <standard_type>
pIC50

> <# Confs.>
25

> <canonical_smiles>
FC(C=C1)=CC=C1CN2C(NC3CCN(CCC4=CC=C(OC)C=C4)CC3)=NC5=CC=CC=C52

> <standard_relation>
=

> <Publication_ID>
nan

> <predicted_activity_value>
nan

> <actual_activity_value>
2.0457574905606752

> <Compound>
Astemizole

> <standard_units>
uM

> hash
12836115100580538398

$$$$
2
XXILIB    08252103503D 0   0.00000     0.00000

 34 38  0     1  0            999 V2000
    5.5607   -1.8905   -5.1384 F   0  0  0  0  0  1           0  0  0
  -10.1967   -3.0054    0.9615 O   0  0  0  0  0  2           0  0  0
    3.5413    1.1222   -0.0000 N   0  0  0  0  0  3           0  0  0
    1.7169    2.3902   -0.0073 N   0  0  0  0  0  3           0  0  0
    1.4463    0.0000    0.0000 N   0  0  0  0  0  3           0  0  0
   -2.4760   -1.3862    0.7721 N   0  0  2  0  0  3           0  0  0
    5.2851   -1.4569   -3.9005 C   0  0  0  0  0  4           0  0  0
   -8.8605   -2.9019    0.6969 C   0  0  0  0  0  4           0  0  0
    2.1585    1.1455    0.0000 C   0  0  0  0  0  4           0  0  0
    3.9911    2.4255   -0.0290 C   0  0  0  0  0  4           0  0  0
    2.8301    3.1916   -0.0260 C   0  0  0  0  0  4           0  0  0
    4.7114   -0.5540   -1.3222 C   0  0  0  0  0  4           0  0  0
   -6.0639   -2.8243    0.3706 C   0  0  0  0  0  4           0  0  0
    6.1315   -0.5352   -3.2939 C   0  0  0  0  0  4           0  0  0
    4.1558   -1.9338   -3.2435 C   0  0  0  0  0  4           0  0  0
   -8.0186   -3.4942    1.6434 C   0  0  0  0  0  4           0  0  0
   -8.2988   -2.2638   -0.4119 C   0  0  0  0  0  4           0  0  0
    5.2686    2.9973   -0.0575 C   0  0  0  0  0  4           0  0  0
    2.9243    4.5936   -0.0428 C   0  0  0  0  0  4           0  0  0
    5.8423   -0.0826   -2.0069 C   0  0  0  0  0  4           0  0  0
    3.8694   -1.4812   -1.9555 C   0  0  0  0  0  4           0  0  0
   -6.6316   -3.4545    1.4837 C   0  0  0  0  0  4           0  0  0
   -6.9096   -2.2252   -0.5707 C   0  0  0  0  0  4           0  0  0
    5.3461    4.3935   -0.0738 C   0  0  0  0  0  4           0  0  0
    4.1944    5.1803   -0.0646 C   0  0  0  0  0  4           0  0  0
  -11.0580   -2.4026   -0.0017 C   0  0  0  0  0  4           0  0  0
    4.3929   -0.0506    0.0526 C   0  0  0  0  0  4           0  0  0
    0.0000    0.0000    0.0000 C   0  0  2  0  0  4           0  0  0
   -3.9306   -1.5362    0.8767 C   0  0  0  0  0  4           0  0  0
   -2.0482   -0.1625    1.4696 C   0  0  0  0  0  4           0  0  0
   -2.0319   -1.3683   -0.6316 C   0  0  0  0  0  4           0  0  0
   -4.5724   -2.7613    0.2073 C   0  0  0  0  0  4           0  0  0
   -0.5276    0.0000    1.4370 C   0  0  0  0  0  4           0  0  0
   -0.5097   -1.2438   -0.7337 C   0  0  0  0  0  4           0  0  0
  1  7  1  0     0  0
  2  8  1  0     0  0
  2 26  1  0     0  0
  3  9  1  0     0  0
  3 10  1  0     0  0
  3 27  1  0     0  0
  4  9  2  0     0  0
  4 11  1  0     0  0
  5  9  1  0     0  0
  5 28  1  0     0  0
  6 29  1  0     0  0
  6 30  1  0     0  0
  6 31  1  0     0  0
  7 14  1  0     0  0
  7 15  2  0     0  0
  8 16  2  0     0  0
  8 17  1  0     0  0
 10 11  1  0     0  0
 10 18  2  0     0  0
 11 19  2  0     0  0
 12 20  1  0     0  0
 12 21  2  0     0  0
 12 27  1  0     0  0
 13 22  2  0     0  0
 13 23  1  0     0  0
 13 32  1  0     0  0
 14 20  2  0     0  0
 15 21  1  0     0  0
 16 22  1  0     0  0
 17 23  2  0     0  0
 18 24  1  0     0  0
 19 25  1  0     0  0
 24 25  2  0     0  0
 28 33  1  0     0  0
 28 34  1  0     0  0
 29 32  1  0     0  0
 30 33  1  0     0  0
 31 34  1  0     0  0
M  END
> <standard_type>
pIC50

> <# Confs.>
25

> <canonical_smiles>
FC(C=C1)=CC=C1CN2C(NC3CCN(CCC4=CC=C(OC)C=C4)CC3)=NC5=CC=CC=C52

> <standard_relation>
=

> <Publication_ID>
nan

> <predicted_activity_value>
nan

> <actual_activity_value>
2.0457574905606752

> <Compound>
Astemizole

> <standard_units>
uM

> hash
12836115100580538398

$$$$
2
XXILIB    08252103503D 0   0.00000     0.00000

 34 38  0     1  0            999 V2000
    5.5565    1.4631    5.3764 F   0  0  0  0  0  1           0  0  0
  -10.1755   -2.3385    2.3473 O   0  0  0  0  0  2           0  0  0
    3.5413    0.9719   -0.5611 N   0  0  0  0  0  3           0  0  0
    1.7169    2.0663   -1.2014 N   0  0  0  0  0  3           0  0  0
    1.4463    0.0000    0.0000 N   0  0  0  0  0  3           0  0  0
   -2.4760   -1.3862    0.7721 N   0  0  2  0  0  3           0  0  0
    5.2831    1.1065    4.1138 C   0  0  0  0  0  4           0  0  0
   -8.8346   -2.0778    2.3297 C   0  0  0  0  0  4           0  0  0
    2.1585    0.9920   -0.5728 C   0  0  0  0  0  4           0  0  0
    3.9911    2.0860   -1.2379 C   0  0  0  0  0  4           0  0  0
    2.8301    2.7510   -1.6183 C   0  0  0  0  0  4           0  0  0
    4.7136    0.3635    1.4841 C   0  0  0  0  0  4           0  0  0
   -6.0322   -1.7984    2.2839 C   0  0  0  0  0  4           0  0  0
    4.1708    0.3138    3.8520 C   0  0  0  0  0  4           0  0  0
    6.1145    1.5371    3.0853 C   0  0  0  0  0  4           0  0  0
   -8.0091   -3.2060    2.2947 C   0  0  0  0  0  4           0  0  0
   -8.2536   -0.8073    2.3485 C   0  0  0  0  0  4           0  0  0
    5.2686    2.5670   -1.5484 C   0  0  0  0  0  4           0  0  0
    2.9243    3.9568   -2.3339 C   0  0  0  0  0  4           0  0  0
    3.8857   -0.0544    2.5376 C   0  0  0  0  0  4           0  0  0
    5.8284    1.1661    1.7714 C   0  0  0  0  0  4           0  0  0
   -6.6193   -3.0687    2.2741 C   0  0  0  0  0  4           0  0  0
   -6.8617   -0.6713    2.3274 C   0  0  0  0  0  4           0  0  0
    5.3461    3.7680   -2.2607 C   0  0  0  0  0  4           0  0  0
    4.1944    4.4540   -2.6462 C   0  0  0  0  0  4           0  0  0
  -11.0200   -1.1904    2.3831 C   0  0  0  0  0  4           0  0  0
    4.3929   -0.0175    0.0709 C   0  0  0  0  0  4           0  0  0
   -0.0000    0.0000    0.0000 C   0  0  2  0  0  4           0  0  0
   -3.9306   -1.5362    0.8767 C   0  0  0  0  0  4           0  0  0
   -2.0482   -0.1625    1.4696 C   0  0  0  0  0  4           0  0  0
   -2.0319   -1.3683   -0.6316 C   0  0  0  0  0  4           0  0  0
   -4.5380   -1.6481    2.2835 C   0  0  0  0  0  4           0  0  0
   -0.5276    0.0000    1.4370 C   0  0  0  0  0  4           0  0  0
   -0.5097   -1.2438   -0.7337 C   0  0  0  0  0  4           0  0  0
  1  7  1  0     0  0
  2  8  1  0     0  0
  2 26  1  0     0  0
  3  9  1  0     0  0
  3 10  1  0     0  0
  3 27  1  0     0  0
  4  9  2  0     0  0
  4 11  1  0     0  0
  5  9  1  0     0  0
  5 28  1  0     0  0
  6 29  1  0     0  0
  6 30  1  0     0  0
  6 31  1  0     0  0
  7 14  1  0     0  0
  7 15  2  0     0  0
  8 16  2  0     0  0
  8 17  1  0     0  0
 10 11  1  0     0  0
 10 18  2  0     0  0
 11 19  2  0     0  0
 12 20  1  0     0  0
 12 21  2  0     0  0
 12 27  1  0     0  0
 13 22  2  0     0  0
 13 23  1  0     0  0
 13 32  1  0     0  0
 14 20  2  0     0  0
 15 21  1  0     0  0
 16 22  1  0     0  0
 17 23  2  0     0  0
 18 24  1  0     0  0
 19 25  1  0     0  0
 24 25  2  0     0  0
 28 33  1  0     0  0
 28 34  1  0     0  0
 29 32  1  0     0  0
 30 33  1  0     0  0
 31 34  1  0     0  0
M  END
> <standard_type>
pIC50

> <# Confs.>
25

> <canonical_smiles>
FC(C=C1)=CC=C1CN2C(NC3CCN(CCC4=CC=C(OC)C=C4)CC3)=NC5=CC=CC=C52

> <standard_relation>
=

> <Publication_ID>
nan

> <predicted_activity_value>
nan

> <actual_activity_value>
2.0457574905606752

> <Compound>
Astemizole

> <standard_units>
uM

> hash
12836115100580538398

$$$$
2
XXILIB    08252103503D 0   0.00000     0.00000

 34 38  0     1  0            999 V2000
    5.5607   -1.8905   -5.1384 F   0  0  0  0  0  1           0  0  0
  -10.2001   -2.0941    2.2228 O   0  0  0  0  0  2           0  0  0
    3.5413    1.1222   -0.0000 N   0  0  0  0  0  3           0  0  0
    1.7169    2.3902   -0.0073 N   0  0  0  0  0  3           0  0  0
    1.4463    0.0000    0.0000 N   0  0  0  0  0  3           0  0  0
   -2.4760   -1.3862    0.7721 N   0  0  2  0  0  3           0  0  0
    5.2851   -1.4569   -3.9005 C   0  0  0  0  0  4           0  0  0
   -8.8342   -2.0826    2.2397 C   0  0  0  0  0  4           0  0  0
    2.1585    1.1455    0.0000 C   0  0  0  0  0  4           0  0  0
    3.9911    2.4255   -0.0290 C   0  0  0  0  0  4           0  0  0
    2.8301    3.1916   -0.0260 C   0  0  0  0  0  4           0  0  0
    4.7114   -0.5540   -1.3222 C   0  0  0  0  0  4           0  0  0
   -6.0322   -1.7984    2.2839 C   0  0  0  0  0  4           0  0  0
    6.1315   -0.5352   -3.2939 C   0  0  0  0  0  4           0  0  0
    4.1558   -1.9338   -3.2435 C   0  0  0  0  0  4           0  0  0
   -8.2498   -0.8126    2.2743 C   0  0  0  0  0  4           0  0  0
   -8.0118   -3.2120    2.2205 C   0  0  0  0  0  4           0  0  0
    5.2686    2.9973   -0.0575 C   0  0  0  0  0  4           0  0  0
    2.9243    4.5936   -0.0428 C   0  0  0  0  0  4           0  0  0
    5.8423   -0.0826   -2.0069 C   0  0  0  0  0  4           0  0  0
    3.8694   -1.4812   -1.9555 C   0  0  0  0  0  4           0  0  0
   -6.8605   -0.6704    2.2942 C   0  0  0  0  0  4           0  0  0
   -6.6207   -3.0681    2.2408 C   0  0  0  0  0  4           0  0  0
    5.3461    4.3935   -0.0738 C   0  0  0  0  0  4           0  0  0
    4.1944    5.1803   -0.0646 C   0  0  0  0  0  4           0  0  0
  -10.7991   -3.3874    2.1875 C   0  0  0  0  0  4           0  0  0
    4.3929   -0.0506    0.0526 C   0  0  0  0  0  4           0  0  0
   -0.0000    0.0000    0.0000 C   0  0  2  0  0  4           0  0  0
   -3.9306   -1.5362    0.8767 C   0  0  0  0  0  4           0  0  0
   -2.0482   -0.1625    1.4696 C   0  0  0  0  0  4           0  0  0
   -2.0319   -1.3683   -0.6316 C   0  0  0  0  0  4           0  0  0
   -4.5380   -1.6481    2.2835 C   0  0  0  0  0  4           0  0  0
   -0.5276    0.0000    1.4370 C   0  0  0  0  0  4           0  0  0
   -0.5097   -1.2438   -0.7337 C   0  0  0  0  0  4           0  0  0
  1  7  1  0     0  0
  2  8  1  0     0  0
  2 26  1  0     0  0
  3  9  1  0     0  0
  3 10  1  0     0  0
  3 27  1  0     0  0
  4  9  2  0     0  0
  4 11  1  0     0  0
  5  9  1  0     0  0
  5 28  1  0     0  0
  6 29  1  0     0  0
  6 30  1  0     0  0
  6 31  1  0     0  0
  7 14  1  0     0  0
  7 15  2  0     0  0
  8 16  2  0     0  0
  8 17  1  0     0  0
 10 11  1  0     0  0
 10 18  2  0     0  0
 11 19  2  0     0  0
 12 20  1  0     0  0
 12 21  2  0     0  0
 12 27  1  0     0  0
 13 22  2  0     0  0
 13 23  1  0     0  0
 13 32  1  0     0  0
 14 20  2  0     0  0
 15 21  1  0     0  0
 16 22  1  0     0  0
 17 23  2  0     0  0
 18 24  1  0     0  0
 19 25  1  0     0  0
 24 25  2  0     0  0
 28 33  1  0     0  0
 28 34  1  0     0  0
 29 32  1  0     0  0
 30 33  1  0     0  0
 31 34  1  0     0  0
M  END
> <standard_type>
pIC50

> <# Confs.>
25

> <canonical_smiles>
FC(C=C1)=CC=C1CN2C(NC3CCN(CCC4=CC=C(OC)C=C4)CC3)=NC5=CC=CC=C52

> <standard_relation>
=

> <Publication_ID>
nan

> <predicted_activity_value>
nan

> <actual_activity_value>
2.0457574905606752

> <Compound>
Astemizole

> <standard_units>
uM

> hash
12836115100580538398

$$$$
2
XXILIB    08252103503D 0   0.00000     0.00000

 34 38  0     1  0            999 V2000
    5.5607   -5.3952   -0.9320 F   0  0  0  0  0  1           0  0  0
  -10.2001   -2.0941    2.2228 O   0  0  0  0  0  2           0  0  0
    3.5413    0.5611   -0.9719 N   0  0  0  0  0  3           0  0  0
    1.7169    1.1888   -2.0736 N   0  0  0  0  0  3           0  0  0
    1.4463    0.0000    0.0000 N   0  0  0  0  0  3           0  0  0
   -2.4760   -1.3862    0.7721 N   0  0  2  0  0  3           0  0  0
    5.2851   -4.1064   -0.6885 C   0  0  0  0  0  4           0  0  0
   -8.8342   -2.0826    2.2397 C   0  0  0  0  0  4           0  0  0
    2.1585    0.5728   -0.9920 C   0  0  0  0  0  4           0  0  0
    3.9911    1.1876   -2.1150 C   0  0  0  0  0  4           0  0  0
    2.8301    1.5733   -2.7770 C   0  0  0  0  0  4           0  0  0
    4.7114   -1.4221   -0.1813 C   0  0  0  0  0  4           0  0  0
   -6.0322   -1.7984    2.2839 C   0  0  0  0  0  4           0  0  0
    6.1315   -3.1201   -1.1835 C   0  0  0  0  0  4           0  0  0
    4.1558   -3.7759    0.0530 C   0  0  0  0  0  4           0  0  0
   -8.2498   -0.8126    2.2743 C   0  0  0  0  0  4           0  0  0
   -8.0118   -3.2120    2.2205 C   0  0  0  0  0  4           0  0  0
    5.2686    1.4488   -2.6245 C   0  0  0  0  0  4           0  0  0
    2.9243    2.2597   -3.9996 C   0  0  0  0  0  4           0  0  0
    5.8423   -1.7793   -0.9320 C   0  0  0  0  0  4           0  0  0
    3.8694   -2.4341    0.3050 C   0  0  0  0  0  4           0  0  0
   -6.8605   -0.6704    2.2942 C   0  0  0  0  0  4           0  0  0
   -6.6207   -3.0681    2.2408 C   0  0  0  0  0  4           0  0  0
    5.3461    2.1328   -3.8418 C   0  0  0  0  0  4           0  0  0
    4.1944    2.5342   -4.5186 C   0  0  0  0  0  4           0  0  0
  -10.7991   -3.3874    2.1875 C   0  0  0  0  0  4           0  0  0
    4.3929    0.0203    0.0701 C   0  0  0  0  0  4           0  0  0
   -0.0000    0.0000    0.0000 C   0  0  2  0  0  4           0  0  0
   -3.9306   -1.5362    0.8767 C   0  0  0  0  0  4           0  0  0
   -2.0482   -0.1625    1.4696 C   0  0  0  0  0  4           0  0  0
   -2.0319   -1.3683   -0.6316 C   0  0  0  0  0  4           0  0  0
   -4.5380   -1.6481    2.2835 C   0  0  0  0  0  4           0  0  0
   -0.5276    0.0000    1.4370 C   0  0  0  0  0  4           0  0  0
   -0.5097   -1.2438   -0.7337 C   0  0  0  0  0  4           0  0  0
  1  7  1  0     0  0
  2  8  1  0     0  0
  2 26  1  0     0  0
  3  9  1  0     0  0
  3 10  1  0     0  0
  3 27  1  0     0  0
  4  9  2  0     0  0
  4 11  1  0     0  0
  5  9  1  0     0  0
  5 28  1  0     0  0
  6 29  1  0     0  0
  6 30  1  0     0  0
  6 31  1  0     0  0
  7 14  1  0     0  0
  7 15  2  0     0  0
  8 16  2  0     0  0
  8 17  1  0     0  0
 10 11  1  0     0  0
 10 18  2  0     0  0
 11 19  2  0     0  0
 12 20  1  0     0  0
 12 21  2  0     0  0
 12 27  1  0     0  0
 13 22  2  0     0  0
 13 23  1  0     0  0
 13 32  1  0     0  0
 14 20  2  0     0  0
 15 21  1  0     0  0
 16 22  1  0     0  0
 17 23  2  0     0  0
 18 24  1  0     0  0
 19 25  1  0     0  0
 24 25  2  0     0  0
 28 33  1  0     0  0
 28 34  1  0     0  0
 29 32  1  0     0  0
 30 33  1  0     0  0
 31 34  1  0     0  0
M  END
> <standard_type>
pIC50

> <# Confs.>
25

> <canonical_smiles>
FC(C=C1)=CC=C1CN2C(NC3CCN(CCC4=CC=C(OC)C=C4)CC3)=NC5=CC=CC=C52

> <standard_relation>
=

> <Publication_ID>
nan

> <predicted_activity_value>
nan

> <actual_activity_value>
2.0457574905606752

> <Compound>
Astemizole

> <standard_units>
uM

> hash
12836115100580538398

$$$$
2
XXILIB    08252103503D 0   0.00000     0.00000

 34 38  0     1  0            999 V2000
    5.5607   -4.2064   -3.5047 F   0  0  0  0  0  1           0  0  0
  -10.1755   -2.3385    2.3473 O   0  0  0  0  0  2           0  0  0
    3.5413    0.9719   -0.5611 N   0  0  0  0  0  3           0  0  0
    1.7169    2.0663   -1.2014 N   0  0  0  0  0  3           0  0  0
    1.4463    0.0000    0.0000 N   0  0  0  0  0  3           0  0  0
   -2.4760   -1.3862    0.7721 N   0  0  2  0  0  3           0  0  0
    5.2851   -3.2120   -2.6495 C   0  0  0  0  0  4           0  0  0
   -8.8346   -2.0778    2.3297 C   0  0  0  0  0  4           0  0  0
    2.1585    0.9920   -0.5728 C   0  0  0  0  0  4           0  0  0
    3.9911    2.0860   -1.2379 C   0  0  0  0  0  4           0  0  0
    2.8301    2.7510   -1.6183 C   0  0  0  0  0  4           0  0  0
    4.7114   -1.1409   -0.8681 C   0  0  0  0  0  4           0  0  0
   -6.0322   -1.7984    2.2839 C   0  0  0  0  0  4           0  0  0
    6.1315   -2.1104   -2.5850 C   0  0  0  0  0  4           0  0  0
    4.1558   -3.2965   -1.8421 C   0  0  0  0  0  4           0  0  0
   -8.0091   -3.2060    2.2947 C   0  0  0  0  0  4           0  0  0
   -8.2536   -0.8073    2.3485 C   0  0  0  0  0  4           0  0  0
    5.2686    2.5670   -1.5484 C   0  0  0  0  0  4           0  0  0
    2.9243    3.9568   -2.3339 C   0  0  0  0  0  4           0  0  0
    5.8423   -1.0750   -1.6968 C   0  0  0  0  0  4           0  0  0
    3.8694   -2.2605   -0.9530 C   0  0  0  0  0  4           0  0  0
   -6.6193   -3.0687    2.2741 C   0  0  0  0  0  4           0  0  0
   -6.8617   -0.6713    2.3274 C   0  0  0  0  0  4           0  0  0
    5.3461    3.7680   -2.2607 C   0  0  0  0  0  4           0  0  0
    4.1944    4.4540   -2.6462 C   0  0  0  0  0  4           0  0  0
  -11.0200   -1.1904    2.3831 C   0  0  0  0  0  4           0  0  0
    4.3929   -0.0175    0.0709 C   0  0  0  0  0  4           0  0  0
   -0.0000    0.0000    0.0000 C   0  0  2  0  0  4           0  0  0
   -3.9306   -1.5362    0.8767 C   0  0  0  0  0  4           0  0  0
   -2.0482   -0.1625    1.4696 C   0  0  0  0  0  4           0  0  0
   -2.0319   -1.3683   -0.6316 C   0  0  0  0  0  4           0  0  0
   -4.5380   -1.6481    2.2835 C   0  0  0  0  0  4           0  0  0
   -0.5276    0.0000    1.4370 C   0  0  0  0  0  4           0  0  0
   -0.5097   -1.2438   -0.7337 C   0  0  0  0  0  4           0  0  0
  1  7  1  0     0  0
  2  8  1  0     0  0
  2 26  1  0     0  0
  3  9  1  0     0  0
  3 10  1  0     0  0
  3 27  1  0     0  0
  4  9  2  0     0  0
  4 11  1  0     0  0
  5  9  1  0     0  0
  5 28  1  0     0  0
  6 29  1  0     0  0
  6 30  1  0     0  0
  6 31  1  0     0  0
  7 14  1  0     0  0
  7 15  2  0     0  0
  8 16  2  0     0  0
  8 17  1  0     0  0
 10 11  1  0     0  0
 10 18  2  0     0  0
 11 19  2  0     0  0
 12 20  1  0     0  0
 12 21  2  0     0  0
 12 27  1  0     0  0
 13 22  2  0     0  0
 13 23  1  0     0  0
 13 32  1  0     0  0
 14 20  2  0     0  0
 15 21  1  0     0  0
 16 22  1  0     0  0
 17 23  2  0     0  0
 18 24  1  0     0  0
 19 25  1  0     0  0
 24 25  2  0     0  0
 28 33  1  0     0  0
 28 34  1  0     0  0
 29 32  1  0     0  0
 30 33  1  0     0  0
 31 34  1  0     0  0
M  END
> <standard_type>
pIC50

> <# Confs.>
25

> <canonical_smiles>
FC(C=C1)=CC=C1CN2C(NC3CCN(CCC4=CC=C(OC)C=C4)CC3)=NC5=CC=CC=C52

> <standard_relation>
=

> <Publication_ID>
nan

> <predicted_activity_value>
nan

> <actual_activity_value>
2.0457574905606752

> <Compound>
Astemizole

> <standard_units>
uM

> hash
12836115100580538398

$$$$
2
XXILIB    08252103503D 0   0.00000     0.00000

 34 38  0     1  0            999 V2000
    5.6494   -4.2408   -3.4335 F   0  0  0  0  0  1           0  0  0
  -10.2272   -2.9932    0.6880 O   0  0  0  0  0  2           0  0  0
    3.5413    0.9719   -0.5611 N   0  0  0  0  0  3           0  0  0
    1.7169    2.0663   -1.2014 N   0  0  0  0  0  3           0  0  0
    1.4463    0.0000    0.0000 N   0  0  0  0  0  3           0  0  0
   -2.4760   -1.3862    0.7721 N   0  0  2  0  0  3           0  0  0
    5.3452   -3.2351   -2.6014 C   0  0  0  0  0  4           0  0  0
   -8.8615   -2.9827    0.6567 C   0  0  0  0  0  4           0  0  0
    2.1585    0.9920   -0.5728 C   0  0  0  0  0  4           0  0  0
    3.9911    2.0860   -1.2379 C   0  0  0  0  0  4           0  0  0
    2.8301    2.7510   -1.6183 C   0  0  0  0  0  4           0  0  0
    4.7114   -1.1409   -0.8681 C   0  0  0  0  0  4           0  0  0
   -6.0639   -2.8243    0.3706 C   0  0  0  0  0  4           0  0  0
    4.9516   -3.5203   -1.2983 C   0  0  0  0  0  4           0  0  0
    5.4306   -1.9226   -3.0534 C   0  0  0  0  0  4           0  0  0
   -8.2962   -2.3310   -0.4438 C   0  0  0  0  0  4           0  0  0
   -8.0224   -3.5617    1.6121 C   0  0  0  0  0  4           0  0  0
    5.2686    2.5670   -1.5484 C   0  0  0  0  0  4           0  0  0
    2.9243    3.9568   -2.3339 C   0  0  0  0  0  4           0  0  0
    4.6381   -2.4731   -0.4325 C   0  0  0  0  0  4           0  0  0
    5.1147   -0.8767   -2.1861 C   0  0  0  0  0  4           0  0  0
   -6.9090   -2.2536   -0.5879 C   0  0  0  0  0  4           0  0  0
   -6.6335   -3.4831    1.4668 C   0  0  0  0  0  4           0  0  0
    5.3461    3.7680   -2.2607 C   0  0  0  0  0  4           0  0  0
    4.1944    4.4540   -2.6462 C   0  0  0  0  0  4           0  0  0
  -10.8068   -3.6568    1.8089 C   0  0  0  0  0  4           0  0  0
    4.3929   -0.0175    0.0709 C   0  0  0  0  0  4           0  0  0
    0.0000    0.0000    0.0000 C   0  0  2  0  0  4           0  0  0
   -3.9306   -1.5362    0.8767 C   0  0  0  0  0  4           0  0  0
   -2.0482   -0.1625    1.4696 C   0  0  0  0  0  4           0  0  0
   -2.0319   -1.3683   -0.6316 C   0  0  0  0  0  4           0  0  0
   -4.5724   -2.7613    0.2073 C   0  0  0  0  0  4           0  0  0
   -0.5276    0.0000    1.4370 C   0  0  0  0  0  4           0  0  0
   -0.5097   -1.2438   -0.7337 C   0  0  0  0  0  4           0  0  0
  1  7  1  0     0  0
  2  8  1  0     0  0
  2 26  1  0     0  0
  3  9  1  0     0  0
  3 10  1  0     0  0
  3 27  1  0     0  0
  4  9  2  0     0  0
  4 11  1  0     0  0
  5  9  1  0     0  0
  5 28  1  0     0  0
  6 29  1  0     0  0
  6 30  1  0     0  0
  6 31  1  0     0  0
  7 14  1  0     0  0
  7 15  2  0     0  0
  8 16  2  0     0  0
  8 17  1  0     0  0
 10 11  1  0     0  0
 10 18  2  0     0  0
 11 19  2  0     0  0
 12 20  1  0     0  0
 12 21  2  0     0  0
 12 27  1  0     0  0
 13 22  2  0     0  0
 13 23  1  0     0  0
 13 32  1  0     0  0
 14 20  2  0     0  0
 15 21  1  0     0  0
 16 22  1  0     0  0
 17 23  2  0     0  0
 18 24  1  0     0  0
 19 25  1  0     0  0
 24 25  2  0     0  0
 28 33  1  0     0  0
 28 34  1  0     0  0
 29 32  1  0     0  0
 30 33  1  0     0  0
 31 34  1  0     0  0
M  END
> <standard_type>
pIC50

> <# Confs.>
25

> <canonical_smiles>
FC(C=C1)=CC=C1CN2C(NC3CCN(CCC4=CC=C(OC)C=C4)CC3)=NC5=CC=CC=C52

> <standard_relation>
=

> <Publication_ID>
nan

> <predicted_activity_value>
nan

> <actual_activity_value>
2.0457574905606752

> <Compound>
Astemizole

> <standard_units>
uM

> hash
12836115100580538398

$$$$
2
XXILIB    08252103503D 0   0.00000     0.00000

 34 38  0     1  0            999 V2000
    5.5704   -4.2807   -3.4125 F   0  0  0  0  0  1           0  0  0
  -10.2272   -2.9932    0.6880 O   0  0  0  0  0  2           0  0  0
    3.5413    0.9719   -0.5611 N   0  0  0  0  0  3           0  0  0
    1.7169    2.0663   -1.2014 N   0  0  0  0  0  3           0  0  0
    1.4463    0.0000    0.0000 N   0  0  0  0  0  3           0  0  0
   -2.4760   -1.3862    0.7721 N   0  0  2  0  0  3           0  0  0
    5.2919   -3.2623   -2.5870 C   0  0  0  0  0  4           0  0  0
   -8.8615   -2.9827    0.6567 C   0  0  0  0  0  4           0  0  0
    2.1585    0.9920   -0.5728 C   0  0  0  0  0  4           0  0  0
    3.9911    2.0860   -1.2379 C   0  0  0  0  0  4           0  0  0
    2.8301    2.7510   -1.6183 C   0  0  0  0  0  4           0  0  0
    4.7114   -1.1409   -0.8681 C   0  0  0  0  0  4           0  0  0
   -6.0639   -2.8243    0.3706 C   0  0  0  0  0  4           0  0  0
    3.9903   -2.7779   -2.5126 C   0  0  0  0  0  4           0  0  0
    6.3081   -2.7078   -1.8163 C   0  0  0  0  0  4           0  0  0
   -8.2962   -2.3310   -0.4438 C   0  0  0  0  0  4           0  0  0
   -8.0224   -3.5617    1.6121 C   0  0  0  0  0  4           0  0  0
    5.2686    2.5670   -1.5484 C   0  0  0  0  0  4           0  0  0
    2.9243    3.9568   -2.3339 C   0  0  0  0  0  4           0  0  0
    3.7010   -1.7200   -1.6513 C   0  0  0  0  0  4           0  0  0
    6.0169   -1.6485   -0.9568 C   0  0  0  0  0  4           0  0  0
   -6.9090   -2.2536   -0.5879 C   0  0  0  0  0  4           0  0  0
   -6.6335   -3.4831    1.4668 C   0  0  0  0  0  4           0  0  0
    5.3461    3.7680   -2.2607 C   0  0  0  0  0  4           0  0  0
    4.1944    4.4540   -2.6462 C   0  0  0  0  0  4           0  0  0
  -10.8068   -3.6568    1.8089 C   0  0  0  0  0  4           0  0  0
    4.3929   -0.0175    0.0709 C   0  0  0  0  0  4           0  0  0
    0.0000    0.0000    0.0000 C   0  0  2  0  0  4           0  0  0
   -3.9306   -1.5362    0.8767 C   0  0  0  0  0  4           0  0  0
   -2.0482   -0.1625    1.4696 C   0  0  0  0  0  4           0  0  0
   -2.0319   -1.3683   -0.6316 C   0  0  0  0  0  4           0  0  0
   -4.5724   -2.7613    0.2073 C   0  0  0  0  0  4           0  0  0
   -0.5276    0.0000    1.4370 C   0  0  0  0  0  4           0  0  0
   -0.5097   -1.2438   -0.7337 C   0  0  0  0  0  4           0  0  0
  1  7  1  0     0  0
  2  8  1  0     0  0
  2 26  1  0     0  0
  3  9  1  0     0  0
  3 10  1  0     0  0
  3 27  1  0     0  0
  4  9  2  0     0  0
  4 11  1  0     0  0
  5  9  1  0     0  0
  5 28  1  0     0  0
  6 29  1  0     0  0
  6 30  1  0     0  0
  6 31  1  0     0  0
  7 14  1  0     0  0
  7 15  2  0     0  0
  8 16  2  0     0  0
  8 17  1  0     0  0
 10 11  1  0     0  0
 10 18  2  0     0  0
 11 19  2  0     0  0
 12 20  1  0     0  0
 12 21  2  0     0  0
 12 27  1  0     0  0
 13 22  2  0     0  0
 13 23  1  0     0  0
 13 32  1  0     0  0
 14 20  2  0     0  0
 15 21  1  0     0  0
 16 22  1  0     0  0
 17 23  2  0     0  0
 18 24  1  0     0  0
 19 25  1  0     0  0
 24 25  2  0     0  0
 28 33  1  0     0  0
 28 34  1  0     0  0
 29 32  1  0     0  0
 30 33  1  0     0  0
 31 34  1  0     0  0
M  END
> <standard_type>
pIC50

> <# Confs.>
25

> <canonical_smiles>
FC(C=C1)=CC=C1CN2C(NC3CCN(CCC4=CC=C(OC)C=C4)CC3)=NC5=CC=CC=C52

> <standard_relation>
=

> <Publication_ID>
nan

> <predicted_activity_value>
nan

> <actual_activity_value>
2.0457574905606752

> <Compound>
Astemizole

> <standard_units>
uM

> hash
12836115100580538398

$$$$
2
XXILIB    08252103503D 0   0.00000     0.00000

 34 38  0     1  0            999 V2000
    5.5565   -1.4211    5.3877 F   0  0  0  0  0  1           0  0  0
  -10.3665   -1.4661    0.8088 O   0  0  0  0  0  2           0  0  0
    3.5413    1.1222   -0.0000 N   0  0  0  0  0  3           0  0  0
    1.7169    2.3902   -0.0073 N   0  0  0  0  0  3           0  0  0
    1.4463    0.0000    0.0000 N   0  0  0  0  0  3           0  0  0
   -2.4760   -1.3862    0.7721 N   0  0  2  0  0  3           0  0  0
    5.2831   -1.0986    4.1159 C   0  0  0  0  0  4           0  0  0
   -9.0347   -1.1650    0.7666 C   0  0  0  0  0  4           0  0  0
    2.1585    1.1455    0.0000 C   0  0  0  0  0  4           0  0  0
    3.9911    2.4255   -0.0290 C   0  0  0  0  0  4           0  0  0
    2.8301    3.1916   -0.0260 C   0  0  0  0  0  4           0  0  0
    4.7136   -0.4273    1.4670 C   0  0  0  0  0  4           0  0  0
   -6.2810   -0.6653    0.4486 C   0  0  0  0  0  4           0  0  0
    4.1708   -1.6543    3.4929 C   0  0  0  0  0  4           0  0  0
    6.1145   -0.2115    3.4405 C   0  0  0  0  0  4           0  0  0
   -8.3557   -1.6256   -0.3658 C   0  0  0  0  0  4           0  0  0
   -8.3301   -0.4583    1.7445 C   0  0  0  0  0  4           0  0  0
    5.2686    2.9973   -0.0575 C   0  0  0  0  0  4           0  0  0
    2.9243    4.5936   -0.0428 C   0  0  0  0  0  4           0  0  0
    3.8857   -1.3159    2.1704 C   0  0  0  0  0  4           0  0  0
    5.8284    0.1242    2.1172 C   0  0  0  0  0  4           0  0  0
   -6.9898   -1.3801   -0.5236 C   0  0  0  0  0  4           0  0  0
   -6.9623   -0.2129    1.5850 C   0  0  0  0  0  4           0  0  0
    5.3461    4.3935   -0.0738 C   0  0  0  0  0  4           0  0  0
    4.1944    5.1803   -0.0646 C   0  0  0  0  0  4           0  0  0
  -11.0618   -0.9980    1.9621 C   0  0  0  0  0  4           0  0  0
    4.3929   -0.0506    0.0526 C   0  0  0  0  0  4           0  0  0
    0.0000   -0.0000    0.0000 C   0  0  2  0  0  4           0  0  0
   -3.9306   -1.5362    0.8767 C   0  0  0  0  0  4           0  0  0
   -2.0482   -0.1625    1.4696 C   0  0  0  0  0  4           0  0  0
   -2.0319   -1.3683   -0.6316 C   0  0  0  0  0  4           0  0  0
   -4.8080   -0.4185    0.2919 C   0  0  0  0  0  4           0  0  0
   -0.5276    0.0000    1.4370 C   0  0  0  0  0  4           0  0  0
   -0.5097   -1.2438   -0.7337 C   0  0  0  0  0  4           0  0  0
  1  7  1  0     0  0
  2  8  1  0     0  0
  2 26  1  0     0  0
  3  9  1  0     0  0
  3 10  1  0     0  0
  3 27  1  0     0  0
  4  9  2  0     0  0
  4 11  1  0     0  0
  5  9  1  0     0  0
  5 28  1  0     0  0
  6 29  1  0     0  0
  6 30  1  0     0  0
  6 31  1  0     0  0
  7 14  1  0     0  0
  7 15  2  0     0  0
  8 16  2  0     0  0
  8 17  1  0     0  0
 10 11  1  0     0  0
 10 18  2  0     0  0
 11 19  2  0     0  0
 12 20  1  0     0  0
 12 21  2  0     0  0
 12 27  1  0     0  0
 13 22  2  0     0  0
 13 23  1  0     0  0
 13 32  1  0     0  0
 14 20  2  0     0  0
 15 21  1  0     0  0
 16 22  1  0     0  0
 17 23  2  0     0  0
 18 24  1  0     0  0
 19 25  1  0     0  0
 24 25  2  0     0  0
 28 33  1  0     0  0
 28 34  1  0     0  0
 29 32  1  0     0  0
 30 33  1  0     0  0
 31 34  1  0     0  0
M  END
> <standard_type>
pIC50

> <# Confs.>
25

> <canonical_smiles>
FC(C=C1)=CC=C1CN2C(NC3CCN(CCC4=CC=C(OC)C=C4)CC3)=NC5=CC=CC=C52

> <standard_relation>
=

> <Publication_ID>
nan

> <predicted_activity_value>
nan

> <actual_activity_value>
2.0457574905606752

> <Compound>
Astemizole

> <standard_units>
uM

> hash
12836115100580538398

$$$$
2
XXILIB    08252103503D 0   0.00000     0.00000

 34 38  0     1  0            999 V2000
    5.5565    3.9553    3.9246 F   0  0  0  0  0  1           0  0  0
  -10.3665   -1.4661    0.8088 O   0  0  0  0  0  2           0  0  0
    3.5413    0.5611   -0.9719 N   0  0  0  0  0  3           0  0  0
    1.7169    1.1888   -2.0736 N   0  0  0  0  0  3           0  0  0
    1.4463    0.0000    0.0000 N   0  0  0  0  0  3           0  0  0
   -2.4760   -1.3862    0.7721 N   0  0  2  0  0  3           0  0  0
    5.2831    3.0152    3.0094 C   0  0  0  0  0  4           0  0  0
   -9.0347   -1.1650    0.7666 C   0  0  0  0  0  4           0  0  0
    2.1585    0.5728   -0.9920 C   0  0  0  0  0  4           0  0  0
    3.9911    1.1876   -2.1150 C   0  0  0  0  0  4           0  0  0
    2.8301    1.5733   -2.7770 C   0  0  0  0  0  4           0  0  0
    4.7136    1.0568    1.1035 C   0  0  0  0  0  4           0  0  0
   -6.2810   -0.6653    0.4486 C   0  0  0  0  0  4           0  0  0
    4.1708    2.1977    3.1791 C   0  0  0  0  0  4           0  0  0
    6.1145    2.8738    1.9034 C   0  0  0  0  0  4           0  0  0
   -8.3557   -1.6256   -0.3658 C   0  0  0  0  0  4           0  0  0
   -8.3301   -0.4583    1.7445 C   0  0  0  0  0  4           0  0  0
    5.2686    1.4488   -2.6245 C   0  0  0  0  0  4           0  0  0
    2.9243    2.2597   -3.9996 C   0  0  0  0  0  4           0  0  0
    3.8857    1.2217    2.2248 C   0  0  0  0  0  4           0  0  0
    5.8284    1.8956    0.9510 C   0  0  0  0  0  4           0  0  0
   -6.9898   -1.3801   -0.5236 C   0  0  0  0  0  4           0  0  0
   -6.9623   -0.2129    1.5850 C   0  0  0  0  0  4           0  0  0
    5.3461    2.1328   -3.8418 C   0  0  0  0  0  4           0  0  0
    4.1944    2.5342   -4.5186 C   0  0  0  0  0  4           0  0  0
  -11.0618   -0.9980    1.9621 C   0  0  0  0  0  4           0  0  0
    4.3929    0.0203    0.0701 C   0  0  0  0  0  4           0  0  0
    0.0000   -0.0000    0.0000 C   0  0  2  0  0  4           0  0  0
   -3.9306   -1.5362    0.8767 C   0  0  0  0  0  4           0  0  0
   -2.0482   -0.1625    1.4696 C   0  0  0  0  0  4           0  0  0
   -2.0319   -1.3683   -0.6316 C   0  0  0  0  0  4           0  0  0
   -4.8080   -0.4185    0.2919 C   0  0  0  0  0  4           0  0  0
   -0.5276    0.0000    1.4370 C   0  0  0  0  0  4           0  0  0
   -0.5097   -1.2438   -0.7337 C   0  0  0  0  0  4           0  0  0
  1  7  1  0     0  0
  2  8  1  0     0  0
  2 26  1  0     0  0
  3  9  1  0     0  0
  3 10  1  0     0  0
  3 27  1  0     0  0
  4  9  2  0     0  0
  4 11  1  0     0  0
  5  9  1  0     0  0
  5 28  1  0     0  0
  6 29  1  0     0  0
  6 30  1  0     0  0
  6 31  1  0     0  0
  7 14  1  0     0  0
  7 15  2  0     0  0
  8 16  2  0     0  0
  8 17  1  0     0  0
 10 11  1  0     0  0
 10 18  2  0     0  0
 11 19  2  0     0  0
 12 20  1  0     0  0
 12 21  2  0     0  0
 12 27  1  0     0  0
 13 22  2  0     0  0
 13 23  1  0     0  0
 13 32  1  0     0  0
 14 20  2  0     0  0
 15 21  1  0     0  0
 16 22  1  0     0  0
 17 23  2  0     0  0
 18 24  1  0     0  0
 19 25  1  0     0  0
 24 25  2  0     0  0
 28 33  1  0     0  0
 28 34  1  0     0  0
 29 32  1  0     0  0
 30 33  1  0     0  0
 31 34  1  0     0  0
M  END
> <standard_type>
pIC50

> <# Confs.>
25

> <canonical_smiles>
FC(C=C1)=CC=C1CN2C(NC3CCN(CCC4=CC=C(OC)C=C4)CC3)=NC5=CC=CC=C52

> <standard_relation>
=

> <Publication_ID>
nan

> <predicted_activity_value>
nan

> <actual_activity_value>
2.0457574905606752

> <Compound>
Astemizole

> <standard_units>
uM

> hash
12836115100580538398

$$$$
2
XXILIB    08252103503D 0   0.00000     0.00000

 34 38  0     1  0            999 V2000
    5.5607   -1.8905   -5.1384 F   0  0  0  0  0  1           0  0  0
  -10.3665   -1.4661    0.8088 O   0  0  0  0  0  2           0  0  0
    3.5413    1.1222   -0.0000 N   0  0  0  0  0  3           0  0  0
    1.7169    2.3902   -0.0073 N   0  0  0  0  0  3           0  0  0
    1.4463    0.0000    0.0000 N   0  0  0  0  0  3           0  0  0
   -2.4760   -1.3862    0.7721 N   0  0  2  0  0  3           0  0  0
    5.2851   -1.4569   -3.9005 C   0  0  0  0  0  4           0  0  0
   -9.0347   -1.1650    0.7666 C   0  0  0  0  0  4           0  0  0
    2.1585    1.1455    0.0000 C   0  0  0  0  0  4           0  0  0
    3.9911    2.4255   -0.0290 C   0  0  0  0  0  4           0  0  0
    2.8301    3.1916   -0.0260 C   0  0  0  0  0  4           0  0  0
    4.7114   -0.5540   -1.3222 C   0  0  0  0  0  4           0  0  0
   -6.2810   -0.6653    0.4486 C   0  0  0  0  0  4           0  0  0
    6.1315   -0.5352   -3.2939 C   0  0  0  0  0  4           0  0  0
    4.1558   -1.9338   -3.2435 C   0  0  0  0  0  4           0  0  0
   -8.3557   -1.6256   -0.3658 C   0  0  0  0  0  4           0  0  0
   -8.3301   -0.4583    1.7445 C   0  0  0  0  0  4           0  0  0
    5.2686    2.9973   -0.0575 C   0  0  0  0  0  4           0  0  0
    2.9243    4.5936   -0.0428 C   0  0  0  0  0  4           0  0  0
    5.8423   -0.0826   -2.0069 C   0  0  0  0  0  4           0  0  0
    3.8694   -1.4812   -1.9555 C   0  0  0  0  0  4           0  0  0
   -6.9898   -1.3801   -0.5236 C   0  0  0  0  0  4           0  0  0
   -6.9623   -0.2129    1.5850 C   0  0  0  0  0  4           0  0  0
    5.3461    4.3935   -0.0738 C   0  0  0  0  0  4           0  0  0
    4.1944    5.1803   -0.0646 C   0  0  0  0  0  4           0  0  0
  -11.0618   -0.9980    1.9621 C   0  0  0  0  0  4           0  0  0
    4.3929   -0.0506    0.0526 C   0  0  0  0  0  4           0  0  0
    0.0000   -0.0000    0.0000 C   0  0  2  0  0  4           0  0  0
   -3.9306   -1.5362    0.8767 C   0  0  0  0  0  4           0  0  0
   -2.0482   -0.1625    1.4696 C   0  0  0  0  0  4           0  0  0
   -2.0319   -1.3683   -0.6316 C   0  0  0  0  0  4           0  0  0
   -4.8080   -0.4185    0.2919 C   0  0  0  0  0  4           0  0  0
   -0.5276    0.0000    1.4370 C   0  0  0  0  0  4           0  0  0
   -0.5097   -1.2438   -0.7337 C   0  0  0  0  0  4           0  0  0
  1  7  1  0     0  0
  2  8  1  0     0  0
  2 26  1  0     0  0
  3  9  1  0     0  0
  3 10  1  0     0  0
  3 27  1  0     0  0
  4  9  2  0     0  0
  4 11  1  0     0  0
  5  9  1  0     0  0
  5 28  1  0     0  0
  6 29  1  0     0  0
  6 30  1  0     0  0
  6 31  1  0     0  0
  7 14  1  0     0  0
  7 15  2  0     0  0
  8 16  2  0     0  0
  8 17  1  0     0  0
 10 11  1  0     0  0
 10 18  2  0     0  0
 11 19  2  0     0  0
 12 20  1  0     0  0
 12 21  2  0     0  0
 12 27  1  0     0  0
 13 22  2  0     0  0
 13 23  1  0     0  0
 13 32  1  0     0  0
 14 20  2  0     0  0
 15 21  1  0     0  0
 16 22  1  0     0  0
 17 23  2  0     0  0
 18 24  1  0     0  0
 19 25  1  0     0  0
 24 25  2  0     0  0
 28 33  1  0     0  0
 28 34  1  0     0  0
 29 32  1  0     0  0
 30 33  1  0     0  0
 31 34  1  0     0  0
M  END
> <standard_type>
pIC50

> <# Confs.>
25

> <canonical_smiles>
FC(C=C1)=CC=C1CN2C(NC3CCN(CCC4=CC=C(OC)C=C4)CC3)=NC5=CC=CC=C52

> <standard_relation>
=

> <Publication_ID>
nan

> <predicted_activity_value>
nan

> <actual_activity_value>
2.0457574905606752

> <Compound>
Astemizole

> <standard_units>
uM

> hash
12836115100580538398

$$$$
2
XXILIB    08252103503D 0   0.00000     0.00000

 34 38  0     1  0            999 V2000
    5.5607   -5.3952   -0.9320 F   0  0  0  0  0  1           0  0  0
  -10.3665   -1.4661    0.8088 O   0  0  0  0  0  2           0  0  0
    3.5413    0.5611   -0.9719 N   0  0  0  0  0  3           0  0  0
    1.7169    1.1888   -2.0736 N   0  0  0  0  0  3           0  0  0
    1.4463    0.0000    0.0000 N   0  0  0  0  0  3           0  0  0
   -2.4760   -1.3862    0.7721 N   0  0  2  0  0  3           0  0  0
    5.2851   -4.1064   -0.6885 C   0  0  0  0  0  4           0  0  0
   -9.0347   -1.1650    0.7666 C   0  0  0  0  0  4           0  0  0
    2.1585    0.5728   -0.9920 C   0  0  0  0  0  4           0  0  0
    3.9911    1.1876   -2.1150 C   0  0  0  0  0  4           0  0  0
    2.8301    1.5733   -2.7770 C   0  0  0  0  0  4           0  0  0
    4.7114   -1.4221   -0.1813 C   0  0  0  0  0  4           0  0  0
   -6.2810   -0.6653    0.4486 C   0  0  0  0  0  4           0  0  0
    6.1315   -3.1201   -1.1835 C   0  0  0  0  0  4           0  0  0
    4.1558   -3.7759    0.0530 C   0  0  0  0  0  4           0  0  0
   -8.3557   -1.6256   -0.3658 C   0  0  0  0  0  4           0  0  0
   -8.3301   -0.4583    1.7445 C   0  0  0  0  0  4           0  0  0
    5.2686    1.4488   -2.6245 C   0  0  0  0  0  4           0  0  0
    2.9243    2.2597   -3.9996 C   0  0  0  0  0  4           0  0  0
    5.8423   -1.7793   -0.9320 C   0  0  0  0  0  4           0  0  0
    3.8694   -2.4341    0.3050 C   0  0  0  0  0  4           0  0  0
   -6.9898   -1.3801   -0.5236 C   0  0  0  0  0  4           0  0  0
   -6.9623   -0.2129    1.5850 C   0  0  0  0  0  4           0  0  0
    5.3461    2.1328   -3.8418 C   0  0  0  0  0  4           0  0  0
    4.1944    2.5342   -4.5186 C   0  0  0  0  0  4           0  0  0
  -11.0618   -0.9980    1.9621 C   0  0  0  0  0  4           0  0  0
    4.3929    0.0203    0.0701 C   0  0  0  0  0  4           0  0  0
    0.0000   -0.0000    0.0000 C   0  0  2  0  0  4           0  0  0
   -3.9306   -1.5362    0.8767 C   0  0  0  0  0  4           0  0  0
   -2.0482   -0.1625    1.4696 C   0  0  0  0  0  4           0  0  0
   -2.0319   -1.3683   -0.6316 C   0  0  0  0  0  4           0  0  0
   -4.8080   -0.4185    0.2919 C   0  0  0  0  0  4           0  0  0
   -0.5276    0.0000    1.4370 C   0  0  0  0  0  4           0  0  0
   -0.5097   -1.2438   -0.7337 C   0  0  0  0  0  4           0  0  0
  1  7  1  0     0  0
  2  8  1  0     0  0
  2 26  1  0     0  0
  3  9  1  0     0  0
  3 10  1  0     0  0
  3 27  1  0     0  0
  4  9  2  0     0  0
  4 11  1  0     0  0
  5  9  1  0     0  0
  5 28  1  0     0  0
  6 29  1  0     0  0
  6 30  1  0     0  0
  6 31  1  0     0  0
  7 14  1  0     0  0
  7 15  2  0     0  0
  8 16  2  0     0  0
  8 17  1  0     0  0
 10 11  1  0     0  0
 10 18  2  0     0  0
 11 19  2  0     0  0
 12 20  1  0     0  0
 12 21  2  0     0  0
 12 27  1  0     0  0
 13 22  2  0     0  0
 13 23  1  0     0  0
 13 32  1  0     0  0
 14 20  2  0     0  0
 15 21  1  0     0  0
 16 22  1  0     0  0
 17 23  2  0     0  0
 18 24  1  0     0  0
 19 25  1  0     0  0
 24 25  2  0     0  0
 28 33  1  0     0  0
 28 34  1  0     0  0
 29 32  1  0     0  0
 30 33  1  0     0  0
 31 34  1  0     0  0
M  END
> <standard_type>
pIC50

> <# Confs.>
25

> <canonical_smiles>
FC(C=C1)=CC=C1CN2C(NC3CCN(CCC4=CC=C(OC)C=C4)CC3)=NC5=CC=CC=C52

> <standard_relation>
=

> <Publication_ID>
nan

> <predicted_activity_value>
nan

> <actual_activity_value>
2.0457574905606752

> <Compound>
Astemizole

> <standard_units>
uM

> hash
12836115100580538398

$$$$
2
XXILIB    08252103503D 0   0.00000     0.00000

 34 38  0     1  0            999 V2000
    5.6454   -1.9101   -5.1116 F   0  0  0  0  0  1           0  0  0
  -10.1967   -3.0054    0.9615 O   0  0  0  0  0  2           0  0  0
    3.5413    1.1222   -0.0000 N   0  0  0  0  0  3           0  0  0
    1.7169    2.3902   -0.0073 N   0  0  0  0  0  3           0  0  0
    1.4463    0.0000    0.0000 N   0  0  0  0  0  3           0  0  0
   -2.4760   -1.3862    0.7721 N   0  0  2  0  0  3           0  0  0
    5.3424   -1.4701   -3.8824 C   0  0  0  0  0  4           0  0  0
   -8.8605   -2.9019    0.6969 C   0  0  0  0  0  4           0  0  0
    2.1585    1.1455    0.0000 C   0  0  0  0  0  4           0  0  0
    3.9911    2.4255   -0.0290 C   0  0  0  0  0  4           0  0  0
    2.8301    3.1916   -0.0260 C   0  0  0  0  0  4           0  0  0
    4.7114   -0.5540   -1.3222 C   0  0  0  0  0  4           0  0  0
   -6.0639   -2.8243    0.3706 C   0  0  0  0  0  4           0  0  0
    5.8385   -2.1450   -2.7722 C   0  0  0  0  0  4           0  0  0
    4.5390   -0.3442   -3.7368 C   0  0  0  0  0  4           0  0  0
   -8.0186   -3.4942    1.6434 C   0  0  0  0  0  4           0  0  0
   -8.2988   -2.2638   -0.4119 C   0  0  0  0  0  4           0  0  0
    5.2686    2.9973   -0.0575 C   0  0  0  0  0  4           0  0  0
    2.9243    4.5936   -0.0428 C   0  0  0  0  0  4           0  0  0
    5.5250   -1.6847   -1.4938 C   0  0  0  0  0  4           0  0  0
    4.2252    0.1134   -2.4570 C   0  0  0  0  0  4           0  0  0
   -6.6316   -3.4545    1.4837 C   0  0  0  0  0  4           0  0  0
   -6.9096   -2.2252   -0.5707 C   0  0  0  0  0  4           0  0  0
    5.3461    4.3935   -0.0738 C   0  0  0  0  0  4           0  0  0
    4.1944    5.1803   -0.0646 C   0  0  0  0  0  4           0  0  0
  -11.0580   -2.4026   -0.0017 C   0  0  0  0  0  4           0  0  0
    4.3929   -0.0506    0.0526 C   0  0  0  0  0  4           0  0  0
    0.0000    0.0000    0.0000 C   0  0  2  0  0  4           0  0  0
   -3.9306   -1.5362    0.8767 C   0  0  0  0  0  4           0  0  0
   -2.0482   -0.1625    1.4696 C   0  0  0  0  0  4           0  0  0
   -2.0319   -1.3683   -0.6316 C   0  0  0  0  0  4           0  0  0
   -4.5724   -2.7613    0.2073 C   0  0  0  0  0  4           0  0  0
   -0.5276    0.0000    1.4370 C   0  0  0  0  0  4           0  0  0
   -0.5097   -1.2438   -0.7337 C   0  0  0  0  0  4           0  0  0
  1  7  1  0     0  0
  2  8  1  0     0  0
  2 26  1  0     0  0
  3  9  1  0     0  0
  3 10  1  0     0  0
  3 27  1  0     0  0
  4  9  2  0     0  0
  4 11  1  0     0  0
  5  9  1  0     0  0
  5 28  1  0     0  0
  6 29  1  0     0  0
  6 30  1  0     0  0
  6 31  1  0     0  0
  7 14  1  0     0  0
  7 15  2  0     0  0
  8 16  2  0     0  0
  8 17  1  0     0  0
 10 11  1  0     0  0
 10 18  2  0     0  0
 11 19  2  0     0  0
 12 20  1  0     0  0
 12 21  2  0     0  0
 12 27  1  0     0  0
 13 22  2  0     0  0
 13 23  1  0     0  0
 13 32  1  0     0  0
 14 20  2  0     0  0
 15 21  1  0     0  0
 16 22  1  0     0  0
 17 23  2  0     0  0
 18 24  1  0     0  0
 19 25  1  0     0  0
 24 25  2  0     0  0
 28 33  1  0     0  0
 28 34  1  0     0  0
 29 32  1  0     0  0
 30 33  1  0     0  0
 31 34  1  0     0  0
M  END
> <standard_type>
pIC50

> <# Confs.>
25

> <canonical_smiles>
FC(C=C1)=CC=C1CN2C(NC3CCN(CCC4=CC=C(OC)C=C4)CC3)=NC5=CC=CC=C52

> <standard_relation>
=

> <Publication_ID>
nan

> <predicted_activity_value>
nan

> <actual_activity_value>
2.0457574905606752

> <Compound>
Astemizole

> <standard_units>
uM

> hash
12836115100580538398

$$$$
2
XXILIB    08252103503D 0   0.00000     0.00000

 34 38  0     1  0            999 V2000
    5.6454   -5.3818   -0.9016 F   0  0  0  0  0  1           0  0  0
  -10.1967   -3.0054    0.9615 O   0  0  0  0  0  2           0  0  0
    3.5413    0.5611   -0.9719 N   0  0  0  0  0  3           0  0  0
    1.7169    1.1888   -2.0736 N   0  0  0  0  0  3           0  0  0
    1.4463    0.0000    0.0000 N   0  0  0  0  0  3           0  0  0
   -2.4760   -1.3862    0.7721 N   0  0  2  0  0  3           0  0  0
    5.3424   -4.0973   -0.6681 C   0  0  0  0  0  4           0  0  0
   -8.8605   -2.9019    0.6969 C   0  0  0  0  0  4           0  0  0
    2.1585    0.5728   -0.9920 C   0  0  0  0  0  4           0  0  0
    3.9911    1.1876   -2.1150 C   0  0  0  0  0  4           0  0  0
    2.8301    1.5733   -2.7770 C   0  0  0  0  0  4           0  0  0
    4.7114   -1.4221   -0.1813 C   0  0  0  0  0  4           0  0  0
   -6.0639   -2.8243    0.3706 C   0  0  0  0  0  4           0  0  0
    5.8385   -3.4733    0.4715 C   0  0  0  0  0  4           0  0  0
    4.5390   -3.4083   -1.5703 C   0  0  0  0  0  4           0  0  0
   -8.0186   -3.4942    1.6434 C   0  0  0  0  0  4           0  0  0
   -8.2988   -2.2638   -0.4119 C   0  0  0  0  0  4           0  0  0
    5.2686    1.4488   -2.6245 C   0  0  0  0  0  4           0  0  0
    2.9243    2.2597   -3.9996 C   0  0  0  0  0  4           0  0  0
    5.5250   -2.1360    0.7121 C   0  0  0  0  0  4           0  0  0
    4.2252   -2.0711   -1.3268 C   0  0  0  0  0  4           0  0  0
   -6.6316   -3.4545    1.4837 C   0  0  0  0  0  4           0  0  0
   -6.9096   -2.2252   -0.5707 C   0  0  0  0  0  4           0  0  0
    5.3461    2.1328   -3.8418 C   0  0  0  0  0  4           0  0  0
    4.1944    2.5342   -4.5186 C   0  0  0  0  0  4           0  0  0
  -11.0580   -2.4026   -0.0017 C   0  0  0  0  0  4           0  0  0
    4.3929    0.0203    0.0701 C   0  0  0  0  0  4           0  0  0
    0.0000    0.0000    0.0000 C   0  0  2  0  0  4           0  0  0
   -3.9306   -1.5362    0.8767 C   0  0  0  0  0  4           0  0  0
   -2.0482   -0.1625    1.4696 C   0  0  0  0  0  4           0  0  0
   -2.0319   -1.3683   -0.6316 C   0  0  0  0  0  4           0  0  0
   -4.5724   -2.7613    0.2073 C   0  0  0  0  0  4           0  0  0
   -0.5276    0.0000    1.4370 C   0  0  0  0  0  4           0  0  0
   -0.5097   -1.2438   -0.7337 C   0  0  0  0  0  4           0  0  0
  1  7  1  0     0  0
  2  8  1  0     0  0
  2 26  1  0     0  0
  3  9  1  0     0  0
  3 10  1  0     0  0
  3 27  1  0     0  0
  4  9  2  0     0  0
  4 11  1  0     0  0
  5  9  1  0     0  0
  5 28  1  0     0  0
  6 29  1  0     0  0
  6 30  1  0     0  0
  6 31  1  0     0  0
  7 14  1  0     0  0
  7 15  2  0     0  0
  8 16  2  0     0  0
  8 17  1  0     0  0
 10 11  1  0     0  0
 10 18  2  0     0  0
 11 19  2  0     0  0
 12 20  1  0     0  0
 12 21  2  0     0  0
 12 27  1  0     0  0
 13 22  2  0     0  0
 13 23  1  0     0  0
 13 32  1  0     0  0
 14 20  2  0     0  0
 15 21  1  0     0  0
 16 22  1  0     0  0
 17 23  2  0     0  0
 18 24  1  0     0  0
 19 25  1  0     0  0
 24 25  2  0     0  0
 28 33  1  0     0  0
 28 34  1  0     0  0
 29 32  1  0     0  0
 30 33  1  0     0  0
 31 34  1  0     0  0
M  END
> <standard_type>
pIC50

> <# Confs.>
25

> <canonical_smiles>
FC(C=C1)=CC=C1CN2C(NC3CCN(CCC4=CC=C(OC)C=C4)CC3)=NC5=CC=CC=C52

> <standard_relation>
=

> <Publication_ID>
nan

> <predicted_activity_value>
nan

> <actual_activity_value>
2.0457574905606752

> <Compound>
Astemizole

> <standard_units>
uM

> hash
12836115100580538398

$$$$
2
XXILIB    08252103503D 0   0.00000     0.00000

 34 38  0     1  0            999 V2000
    5.6454   -1.9101   -5.1116 F   0  0  0  0  0  1           0  0  0
  -10.2001   -2.0941    2.2228 O   0  0  0  0  0  2           0  0  0
    3.5413    1.1222   -0.0000 N   0  0  0  0  0  3           0  0  0
    1.7169    2.3902   -0.0073 N   0  0  0  0  0  3           0  0  0
    1.4463    0.0000    0.0000 N   0  0  0  0  0  3           0  0  0
   -2.4760   -1.3862    0.7721 N   0  0  2  0  0  3           0  0  0
    5.3424   -1.4701   -3.8824 C   0  0  0  0  0  4           0  0  0
   -8.8342   -2.0826    2.2397 C   0  0  0  0  0  4           0  0  0
    2.1585    1.1455    0.0000 C   0  0  0  0  0  4           0  0  0
    3.9911    2.4255   -0.0290 C   0  0  0  0  0  4           0  0  0
    2.8301    3.1916   -0.0260 C   0  0  0  0  0  4           0  0  0
    4.7114   -0.5540   -1.3222 C   0  0  0  0  0  4           0  0  0
   -6.0322   -1.7984    2.2839 C   0  0  0  0  0  4           0  0  0
    5.8385   -2.1450   -2.7722 C   0  0  0  0  0  4           0  0  0
    4.5390   -0.3442   -3.7368 C   0  0  0  0  0  4           0  0  0
   -8.2498   -0.8126    2.2743 C   0  0  0  0  0  4           0  0  0
   -8.0118   -3.2120    2.2205 C   0  0  0  0  0  4           0  0  0
    5.2686    2.9973   -0.0575 C   0  0  0  0  0  4           0  0  0
    2.9243    4.5936   -0.0428 C   0  0  0  0  0  4           0  0  0
    5.5250   -1.6847   -1.4938 C   0  0  0  0  0  4           0  0  0
    4.2252    0.1134   -2.4570 C   0  0  0  0  0  4           0  0  0
   -6.8605   -0.6704    2.2942 C   0  0  0  0  0  4           0  0  0
   -6.6207   -3.0681    2.2408 C   0  0  0  0  0  4           0  0  0
    5.3461    4.3935   -0.0738 C   0  0  0  0  0  4           0  0  0
    4.1944    5.1803   -0.0646 C   0  0  0  0  0  4           0  0  0
  -10.7991   -3.3874    2.1875 C   0  0  0  0  0  4           0  0  0
    4.3929   -0.0506    0.0526 C   0  0  0  0  0  4           0  0  0
   -0.0000    0.0000    0.0000 C   0  0  2  0  0  4           0  0  0
   -3.9306   -1.5362    0.8767 C   0  0  0  0  0  4           0  0  0
   -2.0482   -0.1625    1.4696 C   0  0  0  0  0  4           0  0  0
   -2.0319   -1.3683   -0.6316 C   0  0  0  0  0  4           0  0  0
   -4.5380   -1.6481    2.2835 C   0  0  0  0  0  4           0  0  0
   -0.5276    0.0000    1.4370 C   0  0  0  0  0  4           0  0  0
   -0.5097   -1.2438   -0.7337 C   0  0  0  0  0  4           0  0  0
  1  7  1  0     0  0
  2  8  1  0     0  0
  2 26  1  0     0  0
  3  9  1  0     0  0
  3 10  1  0     0  0
  3 27  1  0     0  0
  4  9  2  0     0  0
  4 11  1  0     0  0
  5  9  1  0     0  0
  5 28  1  0     0  0
  6 29  1  0     0  0
  6 30  1  0     0  0
  6 31  1  0     0  0
  7 14  1  0     0  0
  7 15  2  0     0  0
  8 16  2  0     0  0
  8 17  1  0     0  0
 10 11  1  0     0  0
 10 18  2  0     0  0
 11 19  2  0     0  0
 12 20  1  0     0  0
 12 21  2  0     0  0
 12 27  1  0     0  0
 13 22  2  0     0  0
 13 23  1  0     0  0
 13 32  1  0     0  0
 14 20  2  0     0  0
 15 21  1  0     0  0
 16 22  1  0     0  0
 17 23  2  0     0  0
 18 24  1  0     0  0
 19 25  1  0     0  0
 24 25  2  0     0  0
 28 33  1  0     0  0
 28 34  1  0     0  0
 29 32  1  0     0  0
 30 33  1  0     0  0
 31 34  1  0     0  0
M  END
> <standard_type>
pIC50

> <# Confs.>
25

> <canonical_smiles>
FC(C=C1)=CC=C1CN2C(NC3CCN(CCC4=CC=C(OC)C=C4)CC3)=NC5=CC=CC=C52

> <standard_relation>
=

> <Publication_ID>
nan

> <predicted_activity_value>
nan

> <actual_activity_value>
2.0457574905606752

> <Compound>
Astemizole

> <standard_units>
uM

> hash
12836115100580538398

$$$$
2
XXILIB    08252103503D 0   0.00000     0.00000

 34 38  0     1  0            999 V2000
    5.6454   -5.3818   -0.9016 F   0  0  0  0  0  1           0  0  0
  -10.2001   -2.0941    2.2228 O   0  0  0  0  0  2           0  0  0
    3.5413    0.5611   -0.9719 N   0  0  0  0  0  3           0  0  0
    1.7169    1.1888   -2.0736 N   0  0  0  0  0  3           0  0  0
    1.4463    0.0000    0.0000 N   0  0  0  0  0  3           0  0  0
   -2.4760   -1.3862    0.7721 N   0  0  2  0  0  3           0  0  0
    5.3424   -4.0973   -0.6681 C   0  0  0  0  0  4           0  0  0
   -8.8342   -2.0826    2.2397 C   0  0  0  0  0  4           0  0  0
    2.1585    0.5728   -0.9920 C   0  0  0  0  0  4           0  0  0
    3.9911    1.1876   -2.1150 C   0  0  0  0  0  4           0  0  0
    2.8301    1.5733   -2.7770 C   0  0  0  0  0  4           0  0  0
    4.7114   -1.4221   -0.1813 C   0  0  0  0  0  4           0  0  0
   -6.0322   -1.7984    2.2839 C   0  0  0  0  0  4           0  0  0
    5.8385   -3.4733    0.4715 C   0  0  0  0  0  4           0  0  0
    4.5390   -3.4083   -1.5703 C   0  0  0  0  0  4           0  0  0
   -8.2498   -0.8126    2.2743 C   0  0  0  0  0  4           0  0  0
   -8.0118   -3.2120    2.2205 C   0  0  0  0  0  4           0  0  0
    5.2686    1.4488   -2.6245 C   0  0  0  0  0  4           0  0  0
    2.9243    2.2597   -3.9996 C   0  0  0  0  0  4           0  0  0
    5.5250   -2.1360    0.7121 C   0  0  0  0  0  4           0  0  0
    4.2252   -2.0711   -1.3268 C   0  0  0  0  0  4           0  0  0
   -6.8605   -0.6704    2.2942 C   0  0  0  0  0  4           0  0  0
   -6.6207   -3.0681    2.2408 C   0  0  0  0  0  4           0  0  0
    5.3461    2.1328   -3.8418 C   0  0  0  0  0  4           0  0  0
    4.1944    2.5342   -4.5186 C   0  0  0  0  0  4           0  0  0
  -10.7991   -3.3874    2.1875 C   0  0  0  0  0  4           0  0  0
    4.3929    0.0203    0.0701 C   0  0  0  0  0  4           0  0  0
   -0.0000    0.0000    0.0000 C   0  0  2  0  0  4           0  0  0
   -3.9306   -1.5362    0.8767 C   0  0  0  0  0  4           0  0  0
   -2.0482   -0.1625    1.4696 C   0  0  0  0  0  4           0  0  0
   -2.0319   -1.3683   -0.6316 C   0  0  0  0  0  4           0  0  0
   -4.5380   -1.6481    2.2835 C   0  0  0  0  0  4           0  0  0
   -0.5276    0.0000    1.4370 C   0  0  0  0  0  4           0  0  0
   -0.5097   -1.2438   -0.7337 C   0  0  0  0  0  4           0  0  0
  1  7  1  0     0  0
  2  8  1  0     0  0
  2 26  1  0     0  0
  3  9  1  0     0  0
  3 10  1  0     0  0
  3 27  1  0     0  0
  4  9  2  0     0  0
  4 11  1  0     0  0
  5  9  1  0     0  0
  5 28  1  0     0  0
  6 29  1  0     0  0
  6 30  1  0     0  0
  6 31  1  0     0  0
  7 14  1  0     0  0
  7 15  2  0     0  0
  8 16  2  0     0  0
  8 17  1  0     0  0
 10 11  1  0     0  0
 10 18  2  0     0  0
 11 19  2  0     0  0
 12 20  1  0     0  0
 12 21  2  0     0  0
 12 27  1  0     0  0
 13 22  2  0     0  0
 13 23  1  0     0  0
 13 32  1  0     0  0
 14 20  2  0     0  0
 15 21  1  0     0  0
 16 22  1  0     0  0
 17 23  2  0     0  0
 18 24  1  0     0  0
 19 25  1  0     0  0
 24 25  2  0     0  0
 28 33  1  0     0  0
 28 34  1  0     0  0
 29 32  1  0     0  0
 30 33  1  0     0  0
 31 34  1  0     0  0
M  END
> <standard_type>
pIC50

> <# Confs.>
25

> <canonical_smiles>
FC(C=C1)=CC=C1CN2C(NC3CCN(CCC4=CC=C(OC)C=C4)CC3)=NC5=CC=CC=C52

> <standard_relation>
=

> <Publication_ID>
nan

> <predicted_activity_value>
nan

> <actual_activity_value>
2.0457574905606752

> <Compound>
Astemizole

> <standard_units>
uM

> hash
12836115100580538398

$$$$
2
XXILIB    08252103503D 0   0.00000     0.00000

 34 38  0     1  0            999 V2000
    2.7861    3.6540    5.7266 F   0  0  0  0  0  1           0  0  0
  -10.1967   -3.0054    0.9615 O   0  0  0  0  0  2           0  0  0
    3.4063    1.3412   -0.0892 N   0  0  0  0  0  3           0  0  0
    1.8374    1.7438   -1.6100 N   0  0  0  0  0  3           0  0  0
    1.4463    0.0000    0.0000 N   0  0  0  0  0  3           0  0  0
   -2.4760   -1.3862    0.7721 N   0  0  2  0  0  3           0  0  0
    3.0986    2.9665    4.6193 C   0  0  0  0  0  4           0  0  0
   -8.8605   -2.9019    0.6969 C   0  0  0  0  0  4           0  0  0
    2.1585    0.9920   -0.5728 C   0  0  0  0  0  4           0  0  0
    3.9032    2.3554   -0.8805 C   0  0  0  0  0  4           0  0  0
    2.8991    2.5881   -1.8146 C   0  0  0  0  0  4           0  0  0
    3.7492    1.5345    2.3133 C   0  0  0  0  0  4           0  0  0
   -6.0639   -2.8243    0.3706 C   0  0  0  0  0  4           0  0  0
    2.3250    1.8703    4.2532 C   0  0  0  0  0  4           0  0  0
    4.1897    3.3619    3.8529 C   0  0  0  0  0  4           0  0  0
   -8.0186   -3.4942    1.6434 C   0  0  0  0  0  4           0  0  0
   -8.2988   -2.2638   -0.4119 C   0  0  0  0  0  4           0  0  0
    5.1038    3.0755   -0.8726 C   0  0  0  0  0  4           0  0  0
    3.0756    3.5857   -2.7885 C   0  0  0  0  0  4           0  0  0
    2.6493    1.1575    3.0993 C   0  0  0  0  0  4           0  0  0
    4.5134    2.6463    2.7001 C   0  0  0  0  0  4           0  0  0
   -6.6316   -3.4545    1.4837 C   0  0  0  0  0  4           0  0  0
   -6.9096   -2.2252   -0.5707 C   0  0  0  0  0  4           0  0  0
    5.2646    4.0649   -1.8478 C   0  0  0  0  0  4           0  0  0
    4.2675    4.3187   -2.7897 C   0  0  0  0  0  4           0  0  0
  -11.0580   -2.4026   -0.0017 C   0  0  0  0  0  4           0  0  0
    4.0828    0.7782    1.0635 C   0  0  0  0  0  4           0  0  0
    0.0000    0.0000    0.0000 C   0  0  2  0  0  4           0  0  0
   -3.9306   -1.5362    0.8767 C   0  0  0  0  0  4           0  0  0
   -2.0482   -0.1625    1.4696 C   0  0  0  0  0  4           0  0  0
   -2.0319   -1.3683   -0.6316 C   0  0  0  0  0  4           0  0  0
   -4.5724   -2.7613    0.2073 C   0  0  0  0  0  4           0  0  0
   -0.5276    0.0000    1.4370 C   0  0  0  0  0  4           0  0  0
   -0.5097   -1.2438   -0.7337 C   0  0  0  0  0  4           0  0  0
  1  7  1  0     0  0
  2  8  1  0     0  0
  2 26  1  0     0  0
  3  9  1  0     0  0
  3 10  1  0     0  0
  3 27  1  0     0  0
  4  9  2  0     0  0
  4 11  1  0     0  0
  5  9  1  0     0  0
  5 28  1  0     0  0
  6 29  1  0     0  0
  6 30  1  0     0  0
  6 31  1  0     0  0
  7 14  1  0     0  0
  7 15  2  0     0  0
  8 16  2  0     0  0
  8 17  1  0     0  0
 10 11  1  0     0  0
 10 18  2  0     0  0
 11 19  2  0     0  0
 12 20  1  0     0  0
 12 21  2  0     0  0
 12 27  1  0     0  0
 13 22  2  0     0  0
 13 23  1  0     0  0
 13 32  1  0     0  0
 14 20  2  0     0  0
 15 21  1  0     0  0
 16 22  1  0     0  0
 17 23  2  0     0  0
 18 24  1  0     0  0
 19 25  1  0     0  0
 24 25  2  0     0  0
 28 33  1  0     0  0
 28 34  1  0     0  0
 29 32  1  0     0  0
 30 33  1  0     0  0
 31 34  1  0     0  0
M  END
> <standard_type>
pIC50

> <# Confs.>
25

> <canonical_smiles>
FC(C=C1)=CC=C1CN2C(NC3CCN(CCC4=CC=C(OC)C=C4)CC3)=NC5=CC=CC=C52

> <standard_relation>
=

> <Publication_ID>
nan

> <predicted_activity_value>
nan

> <actual_activity_value>
2.0457574905606752

> <Compound>
Astemizole

> <standard_units>
uM

> hash
12836115100580538398

$$$$
2
XXILIB    08252103503D 0   0.00000     0.00000

 34 38  0     1  0            999 V2000
    2.8676   -5.9071   -3.1607 F   0  0  0  0  0  1           0  0  0
  -10.1967   -3.0054    0.9615 O   0  0  0  0  0  2           0  0  0
    3.4063    0.0892   -1.3412 N   0  0  0  0  0  3           0  0  0
    1.8312    1.6010   -1.7535 N   0  0  0  0  0  3           0  0  0
    1.4463   -0.0000   -0.0000 N   0  0  0  0  0  3           0  0  0
   -2.4760   -1.3862    0.7721 N   0  0  2  0  0  3           0  0  0
    3.1703   -4.7412   -2.5731 C   0  0  0  0  0  4           0  0  0
   -8.8605   -2.9019    0.6969 C   0  0  0  0  0  4           0  0  0
    2.1585    0.5728   -0.9920 C   0  0  0  0  0  4           0  0  0
    3.8786    0.8446   -2.3938 C   0  0  0  0  0  4           0  0  0
    2.8771    1.7825   -2.6225 C   0  0  0  0  0  4           0  0  0
    3.8012   -2.3131   -1.3492 C   0  0  0  0  0  4           0  0  0
   -6.0639   -2.8243    0.3706 C   0  0  0  0  0  4           0  0  0
    4.2479   -3.9978   -3.0423 C   0  0  0  0  0  4           0  0  0
    2.4005   -4.2924   -1.5053 C   0  0  0  0  0  4           0  0  0
   -8.0186   -3.4942    1.6434 C   0  0  0  0  0  4           0  0  0
   -8.2988   -2.2638   -0.4119 C   0  0  0  0  0  4           0  0  0
    5.0549    0.8015   -3.1516 C   0  0  0  0  0  4           0  0  0
    3.0393    2.7356   -3.6423 C   0  0  0  0  0  4           0  0  0
    4.5603   -2.7835   -2.4319 C   0  0  0  0  0  4           0  0  0
    2.7159   -3.0784   -0.8950 C   0  0  0  0  0  4           0  0  0
   -6.6316   -3.4545    1.4837 C   0  0  0  0  0  4           0  0  0
   -6.9096   -2.2252   -0.5707 C   0  0  0  0  0  4           0  0  0
    5.2019    1.7565   -4.1626 C   0  0  0  0  0  4           0  0  0
    4.2126    2.7097   -4.4042 C   0  0  0  0  0  4           0  0  0
  -11.0580   -2.4026   -0.0017 C   0  0  0  0  0  4           0  0  0
    4.1275   -0.9985   -0.7086 C   0  0  0  0  0  4           0  0  0
    0.0000    0.0000    0.0000 C   0  0  2  0  0  4           0  0  0
   -3.9306   -1.5362    0.8767 C   0  0  0  0  0  4           0  0  0
   -2.0482   -0.1625    1.4696 C   0  0  0  0  0  4           0  0  0
   -2.0319   -1.3683   -0.6316 C   0  0  0  0  0  4           0  0  0
   -4.5724   -2.7613    0.2073 C   0  0  0  0  0  4           0  0  0
   -0.5276    0.0000    1.4370 C   0  0  0  0  0  4           0  0  0
   -0.5097   -1.2438   -0.7337 C   0  0  0  0  0  4           0  0  0
  1  7  1  0     0  0
  2  8  1  0     0  0
  2 26  1  0     0  0
  3  9  1  0     0  0
  3 10  1  0     0  0
  3 27  1  0     0  0
  4  9  2  0     0  0
  4 11  1  0     0  0
  5  9  1  0     0  0
  5 28  1  0     0  0
  6 29  1  0     0  0
  6 30  1  0     0  0
  6 31  1  0     0  0
  7 14  1  0     0  0
  7 15  2  0     0  0
  8 16  2  0     0  0
  8 17  1  0     0  0
 10 11  1  0     0  0
 10 18  2  0     0  0
 11 19  2  0     0  0
 12 20  1  0     0  0
 12 21  2  0     0  0
 12 27  1  0     0  0
 13 22  2  0     0  0
 13 23  1  0     0  0
 13 32  1  0     0  0
 14 20  2  0     0  0
 15 21  1  0     0  0
 16 22  1  0     0  0
 17 23  2  0     0  0
 18 24  1  0     0  0
 19 25  1  0     0  0
 24 25  2  0     0  0
 28 33  1  0     0  0
 28 34  1  0     0  0
 29 32  1  0     0  0
 30 33  1  0     0  0
 31 34  1  0     0  0
M  END
> <standard_type>
pIC50

> <# Confs.>
25

> <canonical_smiles>
FC(C=C1)=CC=C1CN2C(NC3CCN(CCC4=CC=C(OC)C=C4)CC3)=NC5=CC=CC=C52

> <standard_relation>
=

> <Publication_ID>
nan

> <predicted_activity_value>
nan

> <actual_activity_value>
2.0457574905606752

> <Compound>
Astemizole

> <standard_units>
uM

> hash
12836115100580538398

$$$$
2
XXILIB    08252103503D 0   0.00000     0.00000

 34 38  0     1  0            999 V2000
    5.5565   -3.9246    3.9553 F   0  0  0  0  0  1           0  0  0
  -10.1755   -2.3385    2.3473 O   0  0  0  0  0  2           0  0  0
    3.5413    0.9719    0.5611 N   0  0  0  0  0  3           0  0  0
    1.7169    2.0736    1.1888 N   0  0  0  0  0  3           0  0  0
    1.4463    0.0000    0.0000 N   0  0  0  0  0  3           0  0  0
   -2.4760   -1.3862    0.7721 N   0  0  2  0  0  3           0  0  0
    5.2831   -3.0094    3.0152 C   0  0  0  0  0  4           0  0  0
   -8.8346   -2.0778    2.3297 C   0  0  0  0  0  4           0  0  0
    2.1585    0.9920    0.5728 C   0  0  0  0  0  4           0  0  0
    3.9911    2.1150    1.1876 C   0  0  0  0  0  4           0  0  0
    2.8301    2.7770    1.5733 C   0  0  0  0  0  4           0  0  0
    4.7136   -1.1035    1.0568 C   0  0  0  0  0  4           0  0  0
   -6.0322   -1.7984    2.2839 C   0  0  0  0  0  4           0  0  0
    4.1708   -3.1791    2.1977 C   0  0  0  0  0  4           0  0  0
    6.1145   -1.9034    2.8738 C   0  0  0  0  0  4           0  0  0
   -8.0091   -3.2060    2.2947 C   0  0  0  0  0  4           0  0  0
   -8.2536   -0.8073    2.3485 C   0  0  0  0  0  4           0  0  0
    5.2686    2.6245    1.4488 C   0  0  0  0  0  4           0  0  0
    2.9243    3.9996    2.2597 C   0  0  0  0  0  4           0  0  0
    3.8857   -2.2248    1.2217 C   0  0  0  0  0  4           0  0  0
    5.8284   -0.9510    1.8956 C   0  0  0  0  0  4           0  0  0
   -6.6193   -3.0687    2.2741 C   0  0  0  0  0  4           0  0  0
   -6.8617   -0.6713    2.3274 C   0  0  0  0  0  4           0  0  0
    5.3461    3.8418    2.1328 C   0  0  0  0  0  4           0  0  0
    4.1944    4.5186    2.5342 C   0  0  0  0  0  4           0  0  0
  -11.0200   -1.1904    2.3831 C   0  0  0  0  0  4           0  0  0
    4.3929   -0.0701    0.0203 C   0  0  0  0  0  4           0  0  0
   -0.0000    0.0000    0.0000 C   0  0  2  0  0  4           0  0  0
   -3.9306   -1.5362    0.8767 C   0  0  0  0  0  4           0  0  0
   -2.0482   -0.1625    1.4696 C   0  0  0  0  0  4           0  0  0
   -2.0319   -1.3683   -0.6316 C   0  0  0  0  0  4           0  0  0
   -4.5380   -1.6481    2.2835 C   0  0  0  0  0  4           0  0  0
   -0.5276    0.0000    1.4370 C   0  0  0  0  0  4           0  0  0
   -0.5097   -1.2438   -0.7337 C   0  0  0  0  0  4           0  0  0
  1  7  1  0     0  0
  2  8  1  0     0  0
  2 26  1  0     0  0
  3  9  1  0     0  0
  3 10  1  0     0  0
  3 27  1  0     0  0
  4  9  2  0     0  0
  4 11  1  0     0  0
  5  9  1  0     0  0
  5 28  1  0     0  0
  6 29  1  0     0  0
  6 30  1  0     0  0
  6 31  1  0     0  0
  7 14  1  0     0  0
  7 15  2  0     0  0
  8 16  2  0     0  0
  8 17  1  0     0  0
 10 11  1  0     0  0
 10 18  2  0     0  0
 11 19  2  0     0  0
 12 20  1  0     0  0
 12 21  2  0     0  0
 12 27  1  0     0  0
 13 22  2  0     0  0
 13 23  1  0     0  0
 13 32  1  0     0  0
 14 20  2  0     0  0
 15 21  1  0     0  0
 16 22  1  0     0  0
 17 23  2  0     0  0
 18 24  1  0     0  0
 19 25  1  0     0  0
 24 25  2  0     0  0
 28 33  1  0     0  0
 28 34  1  0     0  0
 29 32  1  0     0  0
 30 33  1  0     0  0
 31 34  1  0     0  0
M  END
> <standard_type>
pIC50

> <# Confs.>
25

> <canonical_smiles>
FC(C=C1)=CC=C1CN2C(NC3CCN(CCC4=CC=C(OC)C=C4)CC3)=NC5=CC=CC=C52

> <standard_relation>
=

> <Publication_ID>
nan

> <predicted_activity_value>
nan

> <actual_activity_value>
2.0457574905606752

> <Compound>
Astemizole

> <standard_units>
uM

> hash
12836115100580538398

$$$$
2
XXILIB    08252103503D 0   0.00000     0.00000

 34 38  0     1  0            999 V2000
    2.8676   -3.5354   -5.6908 F   0  0  0  0  0  1           0  0  0
  -10.2272   -2.9932    0.6880 O   0  0  0  0  0  2           0  0  0
    3.4063    0.7479   -1.1169 N   0  0  0  0  0  3           0  0  0
    1.8312    2.2633   -0.7181 N   0  0  0  0  0  3           0  0  0
    1.4463   -0.0000   -0.0000 N   0  0  0  0  0  3           0  0  0
   -2.4760   -1.3862    0.7721 N   0  0  2  0  0  3           0  0  0
    3.1703   -2.8195   -4.5990 C   0  0  0  0  0  4           0  0  0
   -8.8615   -2.9827    0.6567 C   0  0  0  0  0  4           0  0  0
    2.1585    0.9920   -0.5728 C   0  0  0  0  0  4           0  0  0
    3.8786    1.9284   -1.6508 C   0  0  0  0  0  4           0  0  0
    2.8771    2.8550   -1.3799 C   0  0  0  0  0  4           0  0  0
    3.8012   -1.3286   -2.3250 C   0  0  0  0  0  4           0  0  0
   -6.0639   -2.8243    0.3706 C   0  0  0  0  0  4           0  0  0
    4.2479   -1.9410   -4.6336 C   0  0  0  0  0  4           0  0  0
    2.4005   -2.9647   -3.4498 C   0  0  0  0  0  4           0  0  0
   -8.2962   -2.3310   -0.4438 C   0  0  0  0  0  4           0  0  0
   -8.0224   -3.5617    1.6121 C   0  0  0  0  0  4           0  0  0
    5.0549    2.2699   -2.3286 C   0  0  0  0  0  4           0  0  0
    3.0393    4.1903   -1.7865 C   0  0  0  0  0  4           0  0  0
    4.5603   -1.1946   -3.4978 C   0  0  0  0  0  4           0  0  0
    2.7159   -2.2184   -2.3143 C   0  0  0  0  0  4           0  0  0
   -6.9090   -2.2536   -0.5879 C   0  0  0  0  0  4           0  0  0
   -6.6335   -3.4831    1.4668 C   0  0  0  0  0  4           0  0  0
    5.2019    3.6025   -2.7267 C   0  0  0  0  0  4           0  0  0
    4.2126    4.5488   -2.4593 C   0  0  0  0  0  4           0  0  0
  -10.8068   -3.6568    1.8089 C   0  0  0  0  0  4           0  0  0
    4.1275   -0.5104   -1.1129 C   0  0  0  0  0  4           0  0  0
    0.0000    0.0000    0.0000 C   0  0  2  0  0  4           0  0  0
   -3.9306   -1.5362    0.8767 C   0  0  0  0  0  4           0  0  0
   -2.0482   -0.1625    1.4696 C   0  0  0  0  0  4           0  0  0
   -2.0319   -1.3683   -0.6316 C   0  0  0  0  0  4           0  0  0
   -4.5724   -2.7613    0.2073 C   0  0  0  0  0  4           0  0  0
   -0.5276    0.0000    1.4370 C   0  0  0  0  0  4           0  0  0
   -0.5097   -1.2438   -0.7337 C   0  0  0  0  0  4           0  0  0
  1  7  1  0     0  0
  2  8  1  0     0  0
  2 26  1  0     0  0
  3  9  1  0     0  0
  3 10  1  0     0  0
  3 27  1  0     0  0
  4  9  2  0     0  0
  4 11  1  0     0  0
  5  9  1  0     0  0
  5 28  1  0     0  0
  6 29  1  0     0  0
  6 30  1  0     0  0
  6 31  1  0     0  0
  7 14  1  0     0  0
  7 15  2  0     0  0
  8 16  2  0     0  0
  8 17  1  0     0  0
 10 11  1  0     0  0
 10 18  2  0     0  0
 11 19  2  0     0  0
 12 20  1  0     0  0
 12 21  2  0     0  0
 12 27  1  0     0  0
 13 22  2  0     0  0
 13 23  1  0     0  0
 13 32  1  0     0  0
 14 20  2  0     0  0
 15 21  1  0     0  0
 16 22  1  0     0  0
 17 23  2  0     0  0
 18 24  1  0     0  0
 19 25  1  0     0  0
 24 25  2  0     0  0
 28 33  1  0     0  0
 28 34  1  0     0  0
 29 32  1  0     0  0
 30 33  1  0     0  0
 31 34  1  0     0  0
M  END
> <standard_type>
pIC50

> <# Confs.>
25

> <canonical_smiles>
FC(C=C1)=CC=C1CN2C(NC3CCN(CCC4=CC=C(OC)C=C4)CC3)=NC5=CC=CC=C52

> <standard_relation>
=

> <Publication_ID>
nan

> <predicted_activity_value>
nan

> <actual_activity_value>
2.0457574905606752

> <Compound>
Astemizole

> <standard_units>
uM

> hash
12836115100580538398

$$$$
21
XXILIB    08252103503D 0   0.00000     0.00000

 27 30  0     1  0            999 V2000
   -2.8062   -0.2493   -2.3101 F   0  0  0  0  0  1           0  0  0
   -4.0741   -0.3440    2.4630 O   0  0  0  0  0  2           0  0  0
    1.3660   -0.0000    0.0000 O   0  0  0  0  0  2           0  0  0
   -2.1901    0.0407    6.1245 O   0  0  0  0  0  2           0  0  0
   -3.7570   -1.2456    5.0871 O   0  0  0  0  0  2           0  0  0
   -0.0401    0.1481    2.5205 N   0  0  2  0  0  3           0  0  0
   -0.0194    0.0568   -2.4712 N   0  0  2  0  0  3           0  0  0
    1.1353    0.4146   -5.0543 N   0  0  0  0  0  3           0  0  0
   -2.0715   -0.1897   -1.1877 C   0  0  0  0  0  4           0  0  0
   -2.8516   -0.2663    2.4898 C   0  0  0  0  0  4           0  0  0
    0.0000    0.0000    0.0000 C   0  0  0  0  0  4           0  0  0
   -0.6766    0.0000    1.2502 C   0  0  0  0  0  4           0  0  0
   -0.7695   -0.0533    3.6789 C   0  0  0  0  0  4           0  0  0
   -0.6756   -0.0390   -1.2538 C   0  0  0  0  0  4           0  0  0
   -2.0752   -0.1708    1.2244 C   0  0  0  0  0  4           0  0  0
   -2.0897   -0.2649    3.7700 C   0  0  0  0  0  4           0  0  0
   -2.7652   -0.2674    0.0169 C   0  0  0  0  0  4           0  0  0
   -2.6589   -0.4564    5.1116 C   0  0  0  0  0  4           0  0  0
    1.9766   -1.2876    0.0000 C   0  0  0  0  0  4           0  0  0
    1.3651    0.5291    2.6787 C   0  0  2  0  0  4           0  0  0
    1.7838    1.0052   -3.8794 C   0  0  2  0  0  4           0  0  0
    0.7607    1.2661   -2.7649 C   0  0  0  0  0  4           0  0  0
   -0.5463   -0.6888   -3.6198 C   0  0  0  0  0  4           0  0  0
    0.5188   -0.8611   -4.7000 C   0  0  0  0  0  4           0  0  0
    1.7751    1.7751    3.4227 C   0  0  0  0  0  4           0  0  0
    1.9652    1.6972    1.9388 C   0  0  0  0  0  4           0  0  0
    2.4732    2.3055   -4.2893 C   0  0  0  0  0  4           0  0  0
  1  9  1  0     0  0
  2 10  2  0     0  0
  3 11  1  0     0  0
  3 19  1  0     0  0
  4 18  2  0     0  0
  5 18  1  0     0  0
  6 12  1  0     0  0
  6 13  1  0     0  0
  6 20  1  0     0  0
  7 14  1  0     0  0
  7 22  1  0     0  0
  7 23  1  0     0  0
  8 21  1  0     0  0
  8 24  1  0     0  0
  9 14  2  0     0  0
  9 17  1  0     0  0
 10 15  1  0     0  0
 10 16  1  0     0  0
 11 12  2  0     0  0
 11 14  1  0     0  0
 12 15  1  0     0  0
 13 16  2  0     0  0
 15 17  2  0     0  0
 16 18  1  0     0  0
 20 25  1  0     0  0
 20 26  1  0     0  0
 21 22  1  0     0  0
 21 27  1  0     0  0
 23 24  1  0     0  0
 25 26  1  0     0  0
M  END
> <standard_type>
pIC50

> <# Confs.>
25

> <canonical_smiles>
O=C1C(C(O)=O)=CN(C2CC2)C(C1=C3)=C(OC)C(N4CC(NCC4)C)=C3F

> <standard_relation>
=

> <Publication_ID>
nan

> <predicted_activity_value>
nan

> <actual_activity_value>
-2.113943352306837

> <Compound>
Gatifloxacin

> <standard_units>
uM

> hash
14180336456523802737

$$$$
21
XXILIB    08252103503D 0   0.00000     0.00000

 27 30  0     1  0            999 V2000
   -2.8062   -0.2493   -2.3101 F   0  0  0  0  0  1           0  0  0
   -4.0741   -0.3440    2.4630 O   0  0  0  0  0  2           0  0  0
    1.3660   -0.0000    0.0000 O   0  0  0  0  0  2           0  0  0
   -2.0486   -0.9623    6.0414 O   0  0  0  0  0  2           0  0  0
   -3.9325   -0.0078    5.1894 O   0  0  0  0  0  2           0  0  0
   -0.0401    0.1481    2.5205 N   0  0  2  0  0  3           0  0  0
   -0.0201    0.0566   -2.4697 N   0  0  2  0  0  3           0  0  0
    1.2662    0.2959   -5.0049 N   0  0  0  0  0  3           0  0  0
   -2.0715   -0.1897   -1.1877 C   0  0  0  0  0  4           0  0  0
   -2.8516   -0.2663    2.4898 C   0  0  0  0  0  4           0  0  0
    0.0000    0.0000    0.0000 C   0  0  0  0  0  4           0  0  0
   -0.6766    0.0000    1.2502 C   0  0  0  0  0  4           0  0  0
   -0.7695   -0.0533    3.6789 C   0  0  0  0  0  4           0  0  0
   -0.6756   -0.0390   -1.2538 C   0  0  0  0  0  4           0  0  0
   -2.0752   -0.1708    1.2244 C   0  0  0  0  0  4           0  0  0
   -2.0897   -0.2649    3.7700 C   0  0  0  0  0  4           0  0  0
   -2.7652   -0.2674    0.0169 C   0  0  0  0  0  4           0  0  0
   -2.6589   -0.4564    5.1116 C   0  0  0  0  0  4           0  0  0
    1.9766   -1.2876    0.0000 C   0  0  0  0  0  4           0  0  0
    1.3651    0.5291    2.6787 C   0  0  2  0  0  4           0  0  0
    1.8335    0.9806   -3.8388 C   0  0  2  0  0  4           0  0  0
    0.7623    1.2610   -2.7735 C   0  0  0  0  0  4           0  0  0
   -0.5352   -0.6901   -3.6218 C   0  0  0  0  0  4           0  0  0
    0.5703   -0.9360   -4.6450 C   0  0  0  0  0  4           0  0  0
    1.7751    1.7751    3.4227 C   0  0  0  0  0  4           0  0  0
    1.9652    1.6972    1.9388 C   0  0  0  0  0  4           0  0  0
    3.0395    0.2358   -3.2549 C   0  0  0  0  0  4           0  0  0
  1  9  1  0     0  0
  2 10  2  0     0  0
  3 11  1  0     0  0
  3 19  1  0     0  0
  4 18  2  0     0  0
  5 18  1  0     0  0
  6 12  1  0     0  0
  6 13  1  0     0  0
  6 20  1  0     0  0
  7 14  1  0     0  0
  7 22  1  0     0  0
  7 23  1  0     0  0
  8 21  1  0     0  0
  8 24  1  0     0  0
  9 14  2  0     0  0
  9 17  1  0     0  0
 10 15  1  0     0  0
 10 16  1  0     0  0
 11 12  2  0     0  0
 11 14  1  0     0  0
 12 15  1  0     0  0
 13 16  2  0     0  0
 15 17  2  0     0  0
 16 18  1  0     0  0
 20 25  1  0     0  0
 20 26  1  0     0  0
 21 22  1  0     0  0
 21 27  1  0     0  0
 23 24  1  0     0  0
 25 26  1  0     0  0
M  END
> <standard_type>
pIC50

> <# Confs.>
25

> <canonical_smiles>
O=C1C(C(O)=O)=CN(C2CC2)C(C1=C3)=C(OC)C(N4CC(NCC4)C)=C3F

> <standard_relation>
=

> <Publication_ID>
nan

> <predicted_activity_value>
nan

> <actual_activity_value>
-2.113943352306837

> <Compound>
Gatifloxacin

> <standard_units>
uM

> hash
14180336456523802737

$$$$
21
XXILIB    08252103503D 0   0.00000     0.00000

 27 30  0     1  0            999 V2000
   -2.8062   -0.2493   -2.3101 F   0  0  0  0  0  1           0  0  0
   -4.0741   -0.3440    2.4630 O   0  0  0  0  0  2           0  0  0
    1.3660   -0.0000    0.0000 O   0  0  0  0  0  2           0  0  0
   -3.6530   -1.1302    5.3367 O   0  0  0  0  0  2           0  0  0
   -1.9525    0.2010    6.0592 O   0  0  0  0  0  2           0  0  0
   -0.0401    0.1481    2.5205 N   0  0  2  0  0  3           0  0  0
   -0.0194    0.0568   -2.4712 N   0  0  2  0  0  3           0  0  0
    1.1353    0.4146   -5.0543 N   0  0  0  0  0  3           0  0  0
   -2.0715   -0.1897   -1.1877 C   0  0  0  0  0  4           0  0  0
   -2.8516   -0.2663    2.4898 C   0  0  0  0  0  4           0  0  0
    0.0000    0.0000    0.0000 C   0  0  0  0  0  4           0  0  0
   -0.6766    0.0000    1.2502 C   0  0  0  0  0  4           0  0  0
   -0.7695   -0.0533    3.6789 C   0  0  0  0  0  4           0  0  0
   -0.6756   -0.0390   -1.2538 C   0  0  0  0  0  4           0  0  0
   -2.0752   -0.1708    1.2244 C   0  0  0  0  0  4           0  0  0
   -2.0897   -0.2649    3.7700 C   0  0  0  0  0  4           0  0  0
   -2.7652   -0.2674    0.0169 C   0  0  0  0  0  4           0  0  0
   -2.6589   -0.4564    5.1116 C   0  0  0  0  0  4           0  0  0
    1.9766   -1.2876    0.0000 C   0  0  0  0  0  4           0  0  0
    1.3651    0.5291    2.6787 C   0  0  2  0  0  4           0  0  0
    1.7838    1.0052   -3.8794 C   0  0  2  0  0  4           0  0  0
    0.7607    1.2661   -2.7649 C   0  0  0  0  0  4           0  0  0
   -0.5463   -0.6888   -3.6198 C   0  0  0  0  0  4           0  0  0
    0.5188   -0.8611   -4.7000 C   0  0  0  0  0  4           0  0  0
    1.7751    1.7751    3.4227 C   0  0  0  0  0  4           0  0  0
    1.9652    1.6972    1.9388 C   0  0  0  0  0  4           0  0  0
    2.4732    2.3055   -4.2893 C   0  0  0  0  0  4           0  0  0
  1  9  1  0     0  0
  2 10  2  0     0  0
  3 11  1  0     0  0
  3 19  1  0     0  0
  4 18  2  0     0  0
  5 18  1  0     0  0
  6 12  1  0     0  0
  6 13  1  0     0  0
  6 20  1  0     0  0
  7 14  1  0     0  0
  7 22  1  0     0  0
  7 23  1  0     0  0
  8 21  1  0     0  0
  8 24  1  0     0  0
  9 14  2  0     0  0
  9 17  1  0     0  0
 10 15  1  0     0  0
 10 16  1  0     0  0
 11 12  2  0     0  0
 11 14  1  0     0  0
 12 15  1  0     0  0
 13 16  2  0     0  0
 15 17  2  0     0  0
 16 18  1  0     0  0
 20 25  1  0     0  0
 20 26  1  0     0  0
 21 22  1  0     0  0
 21 27  1  0     0  0
 23 24  1  0     0  0
 25 26  1  0     0  0
M  END
> <standard_type>
pIC50

> <# Confs.>
25

> <canonical_smiles>
O=C1C(C(O)=O)=CN(C2CC2)C(C1=C3)=C(OC)C(N4CC(NCC4)C)=C3F

> <standard_relation>
=

> <Publication_ID>
nan

> <predicted_activity_value>
nan

> <actual_activity_value>
-2.113943352306837

> <Compound>
Gatifloxacin

> <standard_units>
uM

> hash
14180336456523802737

$$$$
21
XXILIB    08252103503D 0   0.00000     0.00000

 27 30  0     1  0            999 V2000
   -2.8062   -0.2493   -2.3101 F   0  0  0  0  0  1           0  0  0
   -4.0741   -0.3440    2.4630 O   0  0  0  0  0  2           0  0  0
    1.3660   -0.0000    0.0000 O   0  0  0  0  0  2           0  0  0
   -2.1901    0.0407    6.1245 O   0  0  0  0  0  2           0  0  0
   -3.7570   -1.2456    5.0871 O   0  0  0  0  0  2           0  0  0
   -0.0401    0.1481    2.5205 N   0  0  2  0  0  3           0  0  0
   -0.0194    0.0568   -2.4712 N   0  0  2  0  0  3           0  0  0
    1.5144    0.0912   -4.8754 N   0  0  0  0  0  3           0  0  0
   -2.0715   -0.1897   -1.1877 C   0  0  0  0  0  4           0  0  0
   -2.8516   -0.2663    2.4898 C   0  0  0  0  0  4           0  0  0
    0.0000    0.0000    0.0000 C   0  0  0  0  0  4           0  0  0
   -0.6766    0.0000    1.2502 C   0  0  0  0  0  4           0  0  0
   -0.7695   -0.0533    3.6789 C   0  0  0  0  0  4           0  0  0
   -0.6756   -0.0390   -1.2538 C   0  0  0  0  0  4           0  0  0
   -2.0752   -0.1708    1.2244 C   0  0  0  0  0  4           0  0  0
   -2.0897   -0.2649    3.7700 C   0  0  0  0  0  4           0  0  0
   -2.7652   -0.2674    0.0169 C   0  0  0  0  0  4           0  0  0
   -2.6589   -0.4564    5.1116 C   0  0  0  0  0  4           0  0  0
    1.9766   -1.2876    0.0000 C   0  0  0  0  0  4           0  0  0
    1.3651    0.5291    2.6787 C   0  0  2  0  0  4           0  0  0
    0.2183   -0.5938   -4.8490 C   0  0  2  0  0  4           0  0  0
   -0.1265   -1.0544   -3.4257 C   0  0  0  0  0  4           0  0  0
    1.1776    0.9001   -2.5655 C   0  0  0  0  0  4           0  0  0
    1.4766    1.2715   -4.0159 C   0  0  0  0  0  4           0  0  0
    1.7751    1.7751    3.4227 C   0  0  0  0  0  4           0  0  0
    1.9652    1.6972    1.9388 C   0  0  0  0  0  4           0  0  0
    0.2638   -1.7869   -5.8022 C   0  0  0  0  0  4           0  0  0
  1  9  1  0     0  0
  2 10  2  0     0  0
  3 11  1  0     0  0
  3 19  1  0     0  0
  4 18  2  0     0  0
  5 18  1  0     0  0
  6 12  1  0     0  0
  6 13  1  0     0  0
  6 20  1  0     0  0
  7 14  1  0     0  0
  7 22  1  0     0  0
  7 23  1  0     0  0
  8 21  1  0     0  0
  8 24  1  0     0  0
  9 14  2  0     0  0
  9 17  1  0     0  0
 10 15  1  0     0  0
 10 16  1  0     0  0
 11 12  2  0     0  0
 11 14  1  0     0  0
 12 15  1  0     0  0
 13 16  2  0     0  0
 15 17  2  0     0  0
 16 18  1  0     0  0
 20 25  1  0     0  0
 20 26  1  0     0  0
 21 22  1  0     0  0
 21 27  1  0     0  0
 23 24  1  0     0  0
 25 26  1  0     0  0
M  END
> <standard_type>
pIC50

> <# Confs.>
25

> <canonical_smiles>
O=C1C(C(O)=O)=CN(C2CC2)C(C1=C3)=C(OC)C(N4CC(NCC4)C)=C3F

> <standard_relation>
=

> <Publication_ID>
nan

> <predicted_activity_value>
nan

> <actual_activity_value>
-2.113943352306837

> <Compound>
Gatifloxacin

> <standard_units>
uM

> hash
14180336456523802737

$$$$
21
XXILIB    08252103503D 0   0.00000     0.00000

 27 30  0     1  0            999 V2000
   -2.8062   -0.2493   -2.3101 F   0  0  0  0  0  1           0  0  0
   -4.0741   -0.3440    2.4630 O   0  0  0  0  0  2           0  0  0
    1.3660   -0.0000    0.0000 O   0  0  0  0  0  2           0  0  0
   -3.7945   -0.1272    5.4198 O   0  0  0  0  0  2           0  0  0
   -1.7771   -1.0368    5.9570 O   0  0  0  0  0  2           0  0  0
   -0.0401    0.1481    2.5205 N   0  0  2  0  0  3           0  0  0
   -0.0201    0.0566   -2.4697 N   0  0  2  0  0  3           0  0  0
    1.2662    0.2959   -5.0049 N   0  0  0  0  0  3           0  0  0
   -2.0715   -0.1897   -1.1877 C   0  0  0  0  0  4           0  0  0
   -2.8516   -0.2663    2.4898 C   0  0  0  0  0  4           0  0  0
    0.0000    0.0000    0.0000 C   0  0  0  0  0  4           0  0  0
   -0.6766    0.0000    1.2502 C   0  0  0  0  0  4           0  0  0
   -0.7695   -0.0533    3.6789 C   0  0  0  0  0  4           0  0  0
   -0.6756   -0.0390   -1.2538 C   0  0  0  0  0  4           0  0  0
   -2.0752   -0.1708    1.2244 C   0  0  0  0  0  4           0  0  0
   -2.0897   -0.2649    3.7700 C   0  0  0  0  0  4           0  0  0
   -2.7652   -0.2674    0.0169 C   0  0  0  0  0  4           0  0  0
   -2.6589   -0.4564    5.1116 C   0  0  0  0  0  4           0  0  0
    1.9766   -1.2876    0.0000 C   0  0  0  0  0  4           0  0  0
    1.3651    0.5291    2.6787 C   0  0  2  0  0  4           0  0  0
    1.8335    0.9806   -3.8388 C   0  0  2  0  0  4           0  0  0
    0.7623    1.2610   -2.7735 C   0  0  0  0  0  4           0  0  0
   -0.5352   -0.6901   -3.6218 C   0  0  0  0  0  4           0  0  0
    0.5703   -0.9360   -4.6450 C   0  0  0  0  0  4           0  0  0
    1.7751    1.7751    3.4227 C   0  0  0  0  0  4           0  0  0
    1.9652    1.6972    1.9388 C   0  0  0  0  0  4           0  0  0
    3.0395    0.2358   -3.2549 C   0  0  0  0  0  4           0  0  0
  1  9  1  0     0  0
  2 10  2  0     0  0
  3 11  1  0     0  0
  3 19  1  0     0  0
  4 18  2  0     0  0
  5 18  1  0     0  0
  6 12  1  0     0  0
  6 13  1  0     0  0
  6 20  1  0     0  0
  7 14  1  0     0  0
  7 22  1  0     0  0
  7 23  1  0     0  0
  8 21  1  0     0  0
  8 24  1  0     0  0
  9 14  2  0     0  0
  9 17  1  0     0  0
 10 15  1  0     0  0
 10 16  1  0     0  0
 11 12  2  0     0  0
 11 14  1  0     0  0
 12 15  1  0     0  0
 13 16  2  0     0  0
 15 17  2  0     0  0
 16 18  1  0     0  0
 20 25  1  0     0  0
 20 26  1  0     0  0
 21 22  1  0     0  0
 21 27  1  0     0  0
 23 24  1  0     0  0
 25 26  1  0     0  0
M  END
> <standard_type>
pIC50

> <# Confs.>
25

> <canonical_smiles>
O=C1C(C(O)=O)=CN(C2CC2)C(C1=C3)=C(OC)C(N4CC(NCC4)C)=C3F

> <standard_relation>
=

> <Publication_ID>
nan

> <predicted_activity_value>
nan

> <actual_activity_value>
-2.113943352306837

> <Compound>
Gatifloxacin

> <standard_units>
uM

> hash
14180336456523802737

$$$$
21
XXILIB    08252103503D 0   0.00000     0.00000

 27 30  0     1  0            999 V2000
   -2.8062   -0.2493   -2.3101 F   0  0  0  0  0  1           0  0  0
   -4.0741   -0.3440    2.4630 O   0  0  0  0  0  2           0  0  0
    1.3660   -0.0000    0.0000 O   0  0  0  0  0  2           0  0  0
   -2.0486   -0.9623    6.0414 O   0  0  0  0  0  2           0  0  0
   -3.9325   -0.0078    5.1894 O   0  0  0  0  0  2           0  0  0
   -0.0401    0.1481    2.5205 N   0  0  2  0  0  3           0  0  0
   -0.0201    0.0566   -2.4697 N   0  0  2  0  0  3           0  0  0
    1.3933    0.2114   -4.9430 N   0  0  0  0  0  3           0  0  0
   -2.0715   -0.1897   -1.1877 C   0  0  0  0  0  4           0  0  0
   -2.8516   -0.2663    2.4898 C   0  0  0  0  0  4           0  0  0
    0.0000    0.0000    0.0000 C   0  0  0  0  0  4           0  0  0
   -0.6766    0.0000    1.2502 C   0  0  0  0  0  4           0  0  0
   -0.7695   -0.0533    3.6789 C   0  0  0  0  0  4           0  0  0
   -0.6756   -0.0390   -1.2538 C   0  0  0  0  0  4           0  0  0
   -2.0752   -0.1708    1.2244 C   0  0  0  0  0  4           0  0  0
   -2.0897   -0.2649    3.7700 C   0  0  0  0  0  4           0  0  0
   -2.7652   -0.2674    0.0169 C   0  0  0  0  0  4           0  0  0
   -2.6589   -0.4564    5.1116 C   0  0  0  0  0  4           0  0  0
    1.9766   -1.2876    0.0000 C   0  0  0  0  0  4           0  0  0
    1.3651    0.5291    2.6787 C   0  0  2  0  0  4           0  0  0
    0.1555   -0.5711   -4.8653 C   0  0  2  0  0  4           0  0  0
   -0.1206   -1.0482   -3.4311 C   0  0  0  0  0  4           0  0  0
    1.1731    0.9024   -2.5757 C   0  0  0  0  0  4           0  0  0
    1.3977    1.3424   -4.0198 C   0  0  0  0  0  4           0  0  0
    1.7751    1.7751    3.4227 C   0  0  0  0  0  4           0  0  0
    1.9652    1.6972    1.9388 C   0  0  0  0  0  4           0  0  0
   -1.0441    0.1746   -5.4610 C   0  0  0  0  0  4           0  0  0
  1  9  1  0     0  0
  2 10  2  0     0  0
  3 11  1  0     0  0
  3 19  1  0     0  0
  4 18  2  0     0  0
  5 18  1  0     0  0
  6 12  1  0     0  0
  6 13  1  0     0  0
  6 20  1  0     0  0
  7 14  1  0     0  0
  7 22  1  0     0  0
  7 23  1  0     0  0
  8 21  1  0     0  0
  8 24  1  0     0  0
  9 14  2  0     0  0
  9 17  1  0     0  0
 10 15  1  0     0  0
 10 16  1  0     0  0
 11 12  2  0     0  0
 11 14  1  0     0  0
 12 15  1  0     0  0
 13 16  2  0     0  0
 15 17  2  0     0  0
 16 18  1  0     0  0
 20 25  1  0     0  0
 20 26  1  0     0  0
 21 22  1  0     0  0
 21 27  1  0     0  0
 23 24  1  0     0  0
 25 26  1  0     0  0
M  END
> <standard_type>
pIC50

> <# Confs.>
25

> <canonical_smiles>
O=C1C(C(O)=O)=CN(C2CC2)C(C1=C3)=C(OC)C(N4CC(NCC4)C)=C3F

> <standard_relation>
=

> <Publication_ID>
nan

> <predicted_activity_value>
nan

> <actual_activity_value>
-2.113943352306837

> <Compound>
Gatifloxacin

> <standard_units>
uM

> hash
14180336456523802737

$$$$
21
XXILIB    08252103503D 0   0.00000     0.00000

 27 30  0     1  0            999 V2000
   -2.8062   -0.2493   -2.3101 F   0  0  0  0  0  1           0  0  0
   -4.0741   -0.3440    2.4630 O   0  0  0  0  0  2           0  0  0
    1.3660   -0.0000    0.0000 O   0  0  0  0  0  2           0  0  0
   -3.6530   -1.1302    5.3367 O   0  0  0  0  0  2           0  0  0
   -1.9525    0.2010    6.0592 O   0  0  0  0  0  2           0  0  0
   -0.0401    0.1481    2.5205 N   0  0  2  0  0  3           0  0  0
   -0.0194    0.0568   -2.4712 N   0  0  2  0  0  3           0  0  0
    1.5144    0.0912   -4.8754 N   0  0  0  0  0  3           0  0  0
   -2.0715   -0.1897   -1.1877 C   0  0  0  0  0  4           0  0  0
   -2.8516   -0.2663    2.4898 C   0  0  0  0  0  4           0  0  0
    0.0000    0.0000    0.0000 C   0  0  0  0  0  4           0  0  0
   -0.6766    0.0000    1.2502 C   0  0  0  0  0  4           0  0  0
   -0.7695   -0.0533    3.6789 C   0  0  0  0  0  4           0  0  0
   -0.6756   -0.0390   -1.2538 C   0  0  0  0  0  4           0  0  0
   -2.0752   -0.1708    1.2244 C   0  0  0  0  0  4           0  0  0
   -2.0897   -0.2649    3.7700 C   0  0  0  0  0  4           0  0  0
   -2.7652   -0.2674    0.0169 C   0  0  0  0  0  4           0  0  0
   -2.6589   -0.4564    5.1116 C   0  0  0  0  0  4           0  0  0
    1.9766   -1.2876    0.0000 C   0  0  0  0  0  4           0  0  0
    1.3651    0.5291    2.6787 C   0  0  2  0  0  4           0  0  0
    0.2183   -0.5938   -4.8490 C   0  0  2  0  0  4           0  0  0
   -0.1265   -1.0544   -3.4257 C   0  0  0  0  0  4           0  0  0
    1.1776    0.9001   -2.5655 C   0  0  0  0  0  4           0  0  0
    1.4766    1.2715   -4.0159 C   0  0  0  0  0  4           0  0  0
    1.7751    1.7751    3.4227 C   0  0  0  0  0  4           0  0  0
    1.9652    1.6972    1.9388 C   0  0  0  0  0  4           0  0  0
    0.2638   -1.7869   -5.8022 C   0  0  0  0  0  4           0  0  0
  1  9  1  0     0  0
  2 10  2  0     0  0
  3 11  1  0     0  0
  3 19  1  0     0  0
  4 18  2  0     0  0
  5 18  1  0     0  0
  6 12  1  0     0  0
  6 13  1  0     0  0
  6 20  1  0     0  0
  7 14  1  0     0  0
  7 22  1  0     0  0
  7 23  1  0     0  0
  8 21  1  0     0  0
  8 24  1  0     0  0
  9 14  2  0     0  0
  9 17  1  0     0  0
 10 15  1  0     0  0
 10 16  1  0     0  0
 11 12  2  0     0  0
 11 14  1  0     0  0
 12 15  1  0     0  0
 13 16  2  0     0  0
 15 17  2  0     0  0
 16 18  1  0     0  0
 20 25  1  0     0  0
 20 26  1  0     0  0
 21 22  1  0     0  0
 21 27  1  0     0  0
 23 24  1  0     0  0
 25 26  1  0     0  0
M  END
> <standard_type>
pIC50

> <# Confs.>
25

> <canonical_smiles>
O=C1C(C(O)=O)=CN(C2CC2)C(C1=C3)=C(OC)C(N4CC(NCC4)C)=C3F

> <standard_relation>
=

> <Publication_ID>
nan

> <predicted_activity_value>
nan

> <actual_activity_value>
-2.113943352306837

> <Compound>
Gatifloxacin

> <standard_units>
uM

> hash
14180336456523802737

$$$$
21
XXILIB    08252103503D 0   0.00000     0.00000

 27 30  0     1  0            999 V2000
   -2.8062   -0.2493   -2.3101 F   0  0  0  0  0  1           0  0  0
   -4.0741   -0.3440    2.4630 O   0  0  0  0  0  2           0  0  0
    1.3660   -0.0000    0.0000 O   0  0  0  0  0  2           0  0  0
   -3.7945   -0.1272    5.4198 O   0  0  0  0  0  2           0  0  0
   -1.7771   -1.0368    5.9570 O   0  0  0  0  0  2           0  0  0
   -0.0401    0.1481    2.5205 N   0  0  2  0  0  3           0  0  0
   -0.0201    0.0566   -2.4697 N   0  0  2  0  0  3           0  0  0
    1.3933    0.2114   -4.9430 N   0  0  0  0  0  3           0  0  0
   -2.0715   -0.1897   -1.1877 C   0  0  0  0  0  4           0  0  0
   -2.8516   -0.2663    2.4898 C   0  0  0  0  0  4           0  0  0
    0.0000    0.0000    0.0000 C   0  0  0  0  0  4           0  0  0
   -0.6766    0.0000    1.2502 C   0  0  0  0  0  4           0  0  0
   -0.7695   -0.0533    3.6789 C   0  0  0  0  0  4           0  0  0
   -0.6756   -0.0390   -1.2538 C   0  0  0  0  0  4           0  0  0
   -2.0752   -0.1708    1.2244 C   0  0  0  0  0  4           0  0  0
   -2.0897   -0.2649    3.7700 C   0  0  0  0  0  4           0  0  0
   -2.7652   -0.2674    0.0169 C   0  0  0  0  0  4           0  0  0
   -2.6589   -0.4564    5.1116 C   0  0  0  0  0  4           0  0  0
    1.9766   -1.2876    0.0000 C   0  0  0  0  0  4           0  0  0
    1.3651    0.5291    2.6787 C   0  0  2  0  0  4           0  0  0
    0.1555   -0.5711   -4.8653 C   0  0  2  0  0  4           0  0  0
   -0.1206   -1.0482   -3.4311 C   0  0  0  0  0  4           0  0  0
    1.1731    0.9024   -2.5757 C   0  0  0  0  0  4           0  0  0
    1.3977    1.3424   -4.0198 C   0  0  0  0  0  4           0  0  0
    1.7751    1.7751    3.4227 C   0  0  0  0  0  4           0  0  0
    1.9652    1.6972    1.9388 C   0  0  0  0  0  4           0  0  0
   -1.0441    0.1746   -5.4610 C   0  0  0  0  0  4           0  0  0
  1  9  1  0     0  0
  2 10  2  0     0  0
  3 11  1  0     0  0
  3 19  1  0     0  0
  4 18  2  0     0  0
  5 18  1  0     0  0
  6 12  1  0     0  0
  6 13  1  0     0  0
  6 20  1  0     0  0
  7 14  1  0     0  0
  7 22  1  0     0  0
  7 23  1  0     0  0
  8 21  1  0     0  0
  8 24  1  0     0  0
  9 14  2  0     0  0
  9 17  1  0     0  0
 10 15  1  0     0  0
 10 16  1  0     0  0
 11 12  2  0     0  0
 11 14  1  0     0  0
 12 15  1  0     0  0
 13 16  2  0     0  0
 15 17  2  0     0  0
 16 18  1  0     0  0
 20 25  1  0     0  0
 20 26  1  0     0  0
 21 22  1  0     0  0
 21 27  1  0     0  0
 23 24  1  0     0  0
 25 26  1  0     0  0
M  END
> <standard_type>
pIC50

> <# Confs.>
25

> <canonical_smiles>
O=C1C(C(O)=O)=CN(C2CC2)C(C1=C3)=C(OC)C(N4CC(NCC4)C)=C3F

> <standard_relation>
=

> <Publication_ID>
nan

> <predicted_activity_value>
nan

> <actual_activity_value>
-2.113943352306837

> <Compound>
Gatifloxacin

> <standard_units>
uM

> hash
14180336456523802737

$$$$
21
XXILIB    08252103503D 0   0.00000     0.00000

 27 30  0     1  0            999 V2000
   -2.8062   -0.2493   -2.3101 F   0  0  0  0  0  1           0  0  0
   -4.0741   -0.3440    2.4630 O   0  0  0  0  0  2           0  0  0
    1.3660   -0.0000    0.0000 O   0  0  0  0  0  2           0  0  0
   -2.1901    0.0407    6.1245 O   0  0  0  0  0  2           0  0  0
   -3.7570   -1.2456    5.0871 O   0  0  0  0  0  2           0  0  0
   -0.0401    0.1481    2.5205 N   0  0  2  0  0  3           0  0  0
   -0.0247    0.0560   -2.4612 N   0  0  2  0  0  3           0  0  0
   -0.3644    1.2252   -5.0309 N   0  0  0  0  0  3           0  0  0
   -2.0715   -0.1897   -1.1877 C   0  0  0  0  0  4           0  0  0
   -2.8516   -0.2663    2.4898 C   0  0  0  0  0  4           0  0  0
    0.0000    0.0000    0.0000 C   0  0  0  0  0  4           0  0  0
   -0.6766    0.0000    1.2502 C   0  0  0  0  0  4           0  0  0
   -0.7695   -0.0533    3.6789 C   0  0  0  0  0  4           0  0  0
   -0.6756   -0.0390   -1.2538 C   0  0  0  0  0  4           0  0  0
   -2.0752   -0.1708    1.2244 C   0  0  0  0  0  4           0  0  0
   -2.0897   -0.2649    3.7700 C   0  0  0  0  0  4           0  0  0
   -2.7652   -0.2674    0.0169 C   0  0  0  0  0  4           0  0  0
   -2.6589   -0.4564    5.1116 C   0  0  0  0  0  4           0  0  0
    1.9766   -1.2876    0.0000 C   0  0  0  0  0  4           0  0  0
    1.3651    0.5291    2.6787 C   0  0  2  0  0  4           0  0  0
   -0.0079    2.0541   -3.8649 C   0  0  2  0  0  4           0  0  0
    0.7715    1.2324   -2.8221 C   0  0  0  0  0  4           0  0  0
   -0.3733   -0.7999   -3.5973 C   0  0  0  0  0  4           0  0  0
   -1.1335    0.0413   -4.6258 C   0  0  0  0  0  4           0  0  0
    1.7751    1.7751    3.4227 C   0  0  0  0  0  4           0  0  0
    1.9652    1.6972    1.9388 C   0  0  0  0  0  4           0  0  0
    0.8200    3.2470   -4.3374 C   0  0  0  0  0  4           0  0  0
  1  9  1  0     0  0
  2 10  2  0     0  0
  3 11  1  0     0  0
  3 19  1  0     0  0
  4 18  2  0     0  0
  5 18  1  0     0  0
  6 12  1  0     0  0
  6 13  1  0     0  0
  6 20  1  0     0  0
  7 14  1  0     0  0
  7 22  1  0     0  0
  7 23  1  0     0  0
  8 21  1  0     0  0
  8 24  1  0     0  0
  9 14  2  0     0  0
  9 17  1  0     0  0
 10 15  1  0     0  0
 10 16  1  0     0  0
 11 12  2  0     0  0
 11 14  1  0     0  0
 12 15  1  0     0  0
 13 16  2  0     0  0
 15 17  2  0     0  0
 16 18  1  0     0  0
 20 25  1  0     0  0
 20 26  1  0     0  0
 21 22  1  0     0  0
 21 27  1  0     0  0
 23 24  1  0     0  0
 25 26  1  0     0  0
M  END
> <standard_type>
pIC50

> <# Confs.>
25

> <canonical_smiles>
O=C1C(C(O)=O)=CN(C2CC2)C(C1=C3)=C(OC)C(N4CC(NCC4)C)=C3F

> <standard_relation>
=

> <Publication_ID>
nan

> <predicted_activity_value>
nan

> <actual_activity_value>
-2.113943352306837

> <Compound>
Gatifloxacin

> <standard_units>
uM

> hash
14180336456523802737

$$$$
21
XXILIB    08252103503D 0   0.00000     0.00000

 27 30  0     1  0            999 V2000
   -2.8062   -0.2493   -2.3101 F   0  0  0  0  0  1           0  0  0
   -4.0741   -0.3440    2.4630 O   0  0  0  0  0  2           0  0  0
    1.3660   -0.0000    0.0000 O   0  0  0  0  0  2           0  0  0
   -2.1901    0.0407    6.1245 O   0  0  0  0  0  2           0  0  0
   -3.7570   -1.2456    5.0871 O   0  0  0  0  0  2           0  0  0
   -0.0401    0.1481    2.5205 N   0  0  2  0  0  3           0  0  0
   -0.0203    0.0566   -2.4693 N   0  0  2  0  0  3           0  0  0
    1.2587    0.2794   -5.0181 N   0  0  0  0  0  3           0  0  0
   -2.0715   -0.1897   -1.1877 C   0  0  0  0  0  4           0  0  0
   -2.8516   -0.2663    2.4898 C   0  0  0  0  0  4           0  0  0
    0.0000    0.0000    0.0000 C   0  0  0  0  0  4           0  0  0
   -0.6766    0.0000    1.2502 C   0  0  0  0  0  4           0  0  0
   -0.7695   -0.0533    3.6789 C   0  0  0  0  0  4           0  0  0
   -0.6756   -0.0390   -1.2538 C   0  0  0  0  0  4           0  0  0
   -2.0752   -0.1708    1.2244 C   0  0  0  0  0  4           0  0  0
   -2.0897   -0.2649    3.7700 C   0  0  0  0  0  4           0  0  0
   -2.7652   -0.2674    0.0169 C   0  0  0  0  0  4           0  0  0
   -2.6589   -0.4564    5.1116 C   0  0  0  0  0  4           0  0  0
    1.9766   -1.2876    0.0000 C   0  0  0  0  0  4           0  0  0
    1.3651    0.5291    2.6787 C   0  0  2  0  0  4           0  0  0
    1.0565   -1.0450   -4.4165 C   0  0  2  0  0  4           0  0  0
   -0.1220   -1.0499   -3.4300 C   0  0  0  0  0  4           0  0  0
    0.2597    1.3820   -3.0313 C   0  0  0  0  0  4           0  0  0
    1.4344    1.3191   -4.0045 C   0  0  0  0  0  4           0  0  0
    1.7751    1.7751    3.4227 C   0  0  0  0  0  4           0  0  0
    1.9652    1.6972    1.9388 C   0  0  0  0  0  4           0  0  0
    2.3393   -1.5849   -3.7760 C   0  0  0  0  0  4           0  0  0
  1  9  1  0     0  0
  2 10  2  0     0  0
  3 11  1  0     0  0
  3 19  1  0     0  0
  4 18  2  0     0  0
  5 18  1  0     0  0
  6 12  1  0     0  0
  6 13  1  0     0  0
  6 20  1  0     0  0
  7 14  1  0     0  0
  7 22  1  0     0  0
  7 23  1  0     0  0
  8 21  1  0     0  0
  8 24  1  0     0  0
  9 14  2  0     0  0
  9 17  1  0     0  0
 10 15  1  0     0  0
 10 16  1  0     0  0
 11 12  2  0     0  0
 11 14  1  0     0  0
 12 15  1  0     0  0
 13 16  2  0     0  0
 15 17  2  0     0  0
 16 18  1  0     0  0
 20 25  1  0     0  0
 20 26  1  0     0  0
 21 22  1  0     0  0
 21 27  1  0     0  0
 23 24  1  0     0  0
 25 26  1  0     0  0
M  END
> <standard_type>
pIC50

> <# Confs.>
25

> <canonical_smiles>
O=C1C(C(O)=O)=CN(C2CC2)C(C1=C3)=C(OC)C(N4CC(NCC4)C)=C3F

> <standard_relation>
=

> <Publication_ID>
nan

> <predicted_activity_value>
nan

> <actual_activity_value>
-2.113943352306837

> <Compound>
Gatifloxacin

> <standard_units>
uM

> hash
14180336456523802737

$$$$
21
XXILIB    08252103503D 0   0.00000     0.00000

 27 30  0     1  0            999 V2000
   -2.8062   -0.2493   -2.3101 F   0  0  0  0  0  1           0  0  0
   -4.0741   -0.3440    2.4630 O   0  0  0  0  0  2           0  0  0
    1.3660   -0.0000    0.0000 O   0  0  0  0  0  2           0  0  0
   -3.5072    0.2754    5.5992 O   0  0  0  0  0  2           0  0  0
   -2.1312   -1.5340    5.7358 O   0  0  0  0  0  2           0  0  0
   -0.0401    0.1481    2.5205 N   0  0  2  0  0  3           0  0  0
   -0.0199    0.0567   -2.4702 N   0  0  2  0  0  3           0  0  0
    1.1441    0.2974   -5.0627 N   0  0  0  0  0  3           0  0  0
   -2.0715   -0.1897   -1.1877 C   0  0  0  0  0  4           0  0  0
   -2.8516   -0.2663    2.4898 C   0  0  0  0  0  4           0  0  0
    0.0000    0.0000    0.0000 C   0  0  0  0  0  4           0  0  0
   -0.6766    0.0000    1.2502 C   0  0  0  0  0  4           0  0  0
   -0.7695   -0.0533    3.6789 C   0  0  0  0  0  4           0  0  0
   -0.6756   -0.0390   -1.2538 C   0  0  0  0  0  4           0  0  0
   -2.0752   -0.1708    1.2244 C   0  0  0  0  0  4           0  0  0
   -2.0897   -0.2649    3.7700 C   0  0  0  0  0  4           0  0  0
   -2.7652   -0.2674    0.0169 C   0  0  0  0  0  4           0  0  0
   -2.6589   -0.4564    5.1116 C   0  0  0  0  0  4           0  0  0
    1.9766   -1.2876    0.0000 C   0  0  0  0  0  4           0  0  0
    1.3651    0.5291    2.6787 C   0  0  2  0  0  4           0  0  0
    1.0396   -1.0212   -4.4298 C   0  0  2  0  0  4           0  0  0
   -0.1238   -1.0517   -3.4283 C   0  0  0  0  0  4           0  0  0
    0.2568    1.3852   -3.0280 C   0  0  0  0  0  4           0  0  0
    1.3891    1.3230   -4.0511 C   0  0  0  0  0  4           0  0  0
    1.7751    1.7751    3.4227 C   0  0  0  0  0  4           0  0  0
    1.9652    1.6972    1.9388 C   0  0  0  0  0  4           0  0  0
    0.8458   -2.0849   -5.5094 C   0  0  0  0  0  4           0  0  0
  1  9  1  0     0  0
  2 10  2  0     0  0
  3 11  1  0     0  0
  3 19  1  0     0  0
  4 18  2  0     0  0
  5 18  1  0     0  0
  6 12  1  0     0  0
  6 13  1  0     0  0
  6 20  1  0     0  0
  7 14  1  0     0  0
  7 22  1  0     0  0
  7 23  1  0     0  0
  8 21  1  0     0  0
  8 24  1  0     0  0
  9 14  2  0     0  0
  9 17  1  0     0  0
 10 15  1  0     0  0
 10 16  1  0     0  0
 11 12  2  0     0  0
 11 14  1  0     0  0
 12 15  1  0     0  0
 13 16  2  0     0  0
 15 17  2  0     0  0
 16 18  1  0     0  0
 20 25  1  0     0  0
 20 26  1  0     0  0
 21 22  1  0     0  0
 21 27  1  0     0  0
 23 24  1  0     0  0
 25 26  1  0     0  0
M  END
> <standard_type>
pIC50

> <# Confs.>
25

> <canonical_smiles>
O=C1C(C(O)=O)=CN(C2CC2)C(C1=C3)=C(OC)C(N4CC(NCC4)C)=C3F

> <standard_relation>
=

> <Publication_ID>
nan

> <predicted_activity_value>
nan

> <actual_activity_value>
-2.113943352306837

> <Compound>
Gatifloxacin

> <standard_units>
uM

> hash
14180336456523802737

$$$$
21
XXILIB    08252103503D 0   0.00000     0.00000

 27 30  0     1  0            999 V2000
   -2.8062   -0.2493   -2.3101 F   0  0  0  0  0  1           0  0  0
   -4.0741   -0.3440    2.4630 O   0  0  0  0  0  2           0  0  0
    1.3660   -0.0000    0.0000 O   0  0  0  0  0  2           0  0  0
   -3.5072    0.2754    5.5992 O   0  0  0  0  0  2           0  0  0
   -2.1312   -1.5340    5.7358 O   0  0  0  0  0  2           0  0  0
   -0.0401    0.1481    2.5205 N   0  0  2  0  0  3           0  0  0
   -0.0194    0.0568   -2.4712 N   0  0  2  0  0  3           0  0  0
    1.0928    0.2886   -5.0871 N   0  0  0  0  0  3           0  0  0
   -2.0715   -0.1897   -1.1877 C   0  0  0  0  0  4           0  0  0
   -2.8516   -0.2663    2.4898 C   0  0  0  0  0  4           0  0  0
    0.0000    0.0000    0.0000 C   0  0  0  0  0  4           0  0  0
   -0.6766    0.0000    1.2502 C   0  0  0  0  0  4           0  0  0
   -0.7695   -0.0533    3.6789 C   0  0  0  0  0  4           0  0  0
   -0.6756   -0.0390   -1.2538 C   0  0  0  0  0  4           0  0  0
   -2.0752   -0.1708    1.2244 C   0  0  0  0  0  4           0  0  0
   -2.0897   -0.2649    3.7700 C   0  0  0  0  0  4           0  0  0
   -2.7652   -0.2674    0.0169 C   0  0  0  0  0  4           0  0  0
   -2.6589   -0.4564    5.1116 C   0  0  0  0  0  4           0  0  0
    1.9766   -1.2876    0.0000 C   0  0  0  0  0  4           0  0  0
    1.3651    0.5291    2.6787 C   0  0  2  0  0  4           0  0  0
    1.3112    1.3565   -4.1065 C   0  0  2  0  0  4           0  0  0
    0.1804    1.3836   -3.0684 C   0  0  0  0  0  4           0  0  0
   -0.0638   -1.0856   -3.3909 C   0  0  0  0  0  4           0  0  0
    1.0630   -1.0095   -4.4183 C   0  0  0  0  0  4           0  0  0
    1.7751    1.7751    3.4227 C   0  0  0  0  0  4           0  0  0
    1.9652    1.6972    1.9388 C   0  0  0  0  0  4           0  0  0
    1.4006    2.6954   -4.8368 C   0  0  0  0  0  4           0  0  0
  1  9  1  0     0  0
  2 10  2  0     0  0
  3 11  1  0     0  0
  3 19  1  0     0  0
  4 18  2  0     0  0
  5 18  1  0     0  0
  6 12  1  0     0  0
  6 13  1  0     0  0
  6 20  1  0     0  0
  7 14  1  0     0  0
  7 22  1  0     0  0
  7 23  1  0     0  0
  8 21  1  0     0  0
  8 24  1  0     0  0
  9 14  2  0     0  0
  9 17  1  0     0  0
 10 15  1  0     0  0
 10 16  1  0     0  0
 11 12  2  0     0  0
 11 14  1  0     0  0
 12 15  1  0     0  0
 13 16  2  0     0  0
 15 17  2  0     0  0
 16 18  1  0     0  0
 20 25  1  0     0  0
 20 26  1  0     0  0
 21 22  1  0     0  0
 21 27  1  0     0  0
 23 24  1  0     0  0
 25 26  1  0     0  0
M  END
> <standard_type>
pIC50

> <# Confs.>
25

> <canonical_smiles>
O=C1C(C(O)=O)=CN(C2CC2)C(C1=C3)=C(OC)C(N4CC(NCC4)C)=C3F

> <standard_relation>
=

> <Publication_ID>
nan

> <predicted_activity_value>
nan

> <actual_activity_value>
-2.113943352306837

> <Compound>
Gatifloxacin

> <standard_units>
uM

> hash
14180336456523802737

$$$$
21
XXILIB    08252103503D 0   0.00000     0.00000

 27 30  0     1  0            999 V2000
   -2.8062   -0.2493   -2.3101 F   0  0  0  0  0  1           0  0  0
   -4.0741   -0.3440    2.4630 O   0  0  0  0  0  2           0  0  0
    1.3660   -0.0000   -0.0000 O   0  0  0  0  0  2           0  0  0
   -2.1901    0.0407    6.1245 O   0  0  0  0  0  2           0  0  0
   -3.7570   -1.2456    5.0871 O   0  0  0  0  0  2           0  0  0
   -0.0401    0.1481    2.5205 N   0  0  2  0  0  3           0  0  0
   -0.0194    0.0568   -2.4712 N   0  0  2  0  0  3           0  0  0
    1.1353    0.4146   -5.0543 N   0  0  0  0  0  3           0  0  0
   -2.0715   -0.1897   -1.1877 C   0  0  0  0  0  4           0  0  0
   -2.8516   -0.2663    2.4898 C   0  0  0  0  0  4           0  0  0
    0.0000    0.0000    0.0000 C   0  0  0  0  0  4           0  0  0
   -0.6766    0.0000    1.2502 C   0  0  0  0  0  4           0  0  0
   -0.7695   -0.0533    3.6789 C   0  0  0  0  0  4           0  0  0
   -0.6756   -0.0390   -1.2538 C   0  0  0  0  0  4           0  0  0
   -2.0752   -0.1708    1.2244 C   0  0  0  0  0  4           0  0  0
   -2.0897   -0.2649    3.7700 C   0  0  0  0  0  4           0  0  0
   -2.7652   -0.2674    0.0169 C   0  0  0  0  0  4           0  0  0
   -2.6589   -0.4564    5.1116 C   0  0  0  0  0  4           0  0  0
    1.9766   -1.1151   -0.6438 C   0  0  0  0  0  4           0  0  0
    1.3651    0.5291    2.6787 C   0  0  2  0  0  4           0  0  0
    1.7838    1.0052   -3.8794 C   0  0  2  0  0  4           0  0  0
    0.7607    1.2661   -2.7649 C   0  0  0  0  0  4           0  0  0
   -0.5463   -0.6888   -3.6198 C   0  0  0  0  0  4           0  0  0
    0.5188   -0.8611   -4.7000 C   0  0  0  0  0  4           0  0  0
    2.4682   -0.4973    2.7396 C   0  0  0  0  0  4           0  0  0
    2.1181    0.2931    3.9630 C   0  0  0  0  0  4           0  0  0
    2.4732    2.3055   -4.2893 C   0  0  0  0  0  4           0  0  0
  1  9  1  0     0  0
  2 10  2  0     0  0
  3 11  1  0     0  0
  3 19  1  0     0  0
  4 18  2  0     0  0
  5 18  1  0     0  0
  6 12  1  0     0  0
  6 13  1  0     0  0
  6 20  1  0     0  0
  7 14  1  0     0  0
  7 22  1  0     0  0
  7 23  1  0     0  0
  8 21  1  0     0  0
  8 24  1  0     0  0
  9 14  2  0     0  0
  9 17  1  0     0  0
 10 15  1  0     0  0
 10 16  1  0     0  0
 11 12  2  0     0  0
 11 14  1  0     0  0
 12 15  1  0     0  0
 13 16  2  0     0  0
 15 17  2  0     0  0
 16 18  1  0     0  0
 20 25  1  0     0  0
 20 26  1  0     0  0
 21 22  1  0     0  0
 21 27  1  0     0  0
 23 24  1  0     0  0
 25 26  1  0     0  0
M  END
> <standard_type>
pIC50

> <# Confs.>
25

> <canonical_smiles>
O=C1C(C(O)=O)=CN(C2CC2)C(C1=C3)=C(OC)C(N4CC(NCC4)C)=C3F

> <standard_relation>
=

> <Publication_ID>
nan

> <predicted_activity_value>
nan

> <actual_activity_value>
-2.113943352306837

> <Compound>
Gatifloxacin

> <standard_units>
uM

> hash
14180336456523802737

$$$$
21
XXILIB    08252103503D 0   0.00000     0.00000

 27 30  0     1  0            999 V2000
   -2.8062   -0.2493   -2.3101 F   0  0  0  0  0  1           0  0  0
   -4.0741   -0.3440    2.4630 O   0  0  0  0  0  2           0  0  0
    1.3660   -0.0000   -0.0000 O   0  0  0  0  0  2           0  0  0
   -2.0486   -0.9623    6.0414 O   0  0  0  0  0  2           0  0  0
   -3.9325   -0.0078    5.1894 O   0  0  0  0  0  2           0  0  0
   -0.0401    0.1481    2.5205 N   0  0  2  0  0  3           0  0  0
   -0.0199    0.0567   -2.4702 N   0  0  2  0  0  3           0  0  0
    1.1441    0.2974   -5.0627 N   0  0  0  0  0  3           0  0  0
   -2.0715   -0.1897   -1.1877 C   0  0  0  0  0  4           0  0  0
   -2.8516   -0.2663    2.4898 C   0  0  0  0  0  4           0  0  0
    0.0000    0.0000    0.0000 C   0  0  0  0  0  4           0  0  0
   -0.6766    0.0000    1.2502 C   0  0  0  0  0  4           0  0  0
   -0.7695   -0.0533    3.6789 C   0  0  0  0  0  4           0  0  0
   -0.6756   -0.0390   -1.2538 C   0  0  0  0  0  4           0  0  0
   -2.0752   -0.1708    1.2244 C   0  0  0  0  0  4           0  0  0
   -2.0897   -0.2649    3.7700 C   0  0  0  0  0  4           0  0  0
   -2.7652   -0.2674    0.0169 C   0  0  0  0  0  4           0  0  0
   -2.6589   -0.4564    5.1116 C   0  0  0  0  0  4           0  0  0
    1.9766   -1.1151   -0.6438 C   0  0  0  0  0  4           0  0  0
    1.3651    0.5291    2.6787 C   0  0  2  0  0  4           0  0  0
    1.0396   -1.0212   -4.4298 C   0  0  2  0  0  4           0  0  0
   -0.1238   -1.0517   -3.4283 C   0  0  0  0  0  4           0  0  0
    0.2568    1.3852   -3.0280 C   0  0  0  0  0  4           0  0  0
    1.3891    1.3230   -4.0511 C   0  0  0  0  0  4           0  0  0
    1.8522    1.3012    3.8790 C   0  0  0  0  0  4           0  0  0
    1.8283    1.9560    2.5319 C   0  0  0  0  0  4           0  0  0
    0.8458   -2.0849   -5.5094 C   0  0  0  0  0  4           0  0  0
  1  9  1  0     0  0
  2 10  2  0     0  0
  3 11  1  0     0  0
  3 19  1  0     0  0
  4 18  2  0     0  0
  5 18  1  0     0  0
  6 12  1  0     0  0
  6 13  1  0     0  0
  6 20  1  0     0  0
  7 14  1  0     0  0
  7 22  1  0     0  0
  7 23  1  0     0  0
  8 21  1  0     0  0
  8 24  1  0     0  0
  9 14  2  0     0  0
  9 17  1  0     0  0
 10 15  1  0     0  0
 10 16  1  0     0  0
 11 12  2  0     0  0
 11 14  1  0     0  0
 12 15  1  0     0  0
 13 16  2  0     0  0
 15 17  2  0     0  0
 16 18  1  0     0  0
 20 25  1  0     0  0
 20 26  1  0     0  0
 21 22  1  0     0  0
 21 27  1  0     0  0
 23 24  1  0     0  0
 25 26  1  0     0  0
M  END
> <standard_type>
pIC50

> <# Confs.>
25

> <canonical_smiles>
O=C1C(C(O)=O)=CN(C2CC2)C(C1=C3)=C(OC)C(N4CC(NCC4)C)=C3F

> <standard_relation>
=

> <Publication_ID>
nan

> <predicted_activity_value>
nan

> <actual_activity_value>
-2.113943352306837

> <Compound>
Gatifloxacin

> <standard_units>
uM

> hash
14180336456523802737

$$$$
21
XXILIB    08252103503D 0   0.00000     0.00000

 27 30  0     1  0            999 V2000
   -2.8062   -0.2493   -2.3101 F   0  0  0  0  0  1           0  0  0
   -4.0741   -0.3440    2.4630 O   0  0  0  0  0  2           0  0  0
    1.3660    0.0000   -0.0000 O   0  0  0  0  0  2           0  0  0
   -2.1901    0.0407    6.1245 O   0  0  0  0  0  2           0  0  0
   -3.7570   -1.2456    5.0871 O   0  0  0  0  0  2           0  0  0
   -0.0401    0.1481    2.5205 N   0  0  2  0  0  3           0  0  0
   -0.0194    0.0568   -2.4712 N   0  0  2  0  0  3           0  0  0
    1.1125    0.1530   -5.0872 N   0  0  0  0  0  3           0  0  0
   -2.0715   -0.1897   -1.1877 C   0  0  0  0  0  4           0  0  0
   -2.8516   -0.2663    2.4898 C   0  0  0  0  0  4           0  0  0
    0.0000    0.0000    0.0000 C   0  0  0  0  0  4           0  0  0
   -0.6766    0.0000    1.2502 C   0  0  0  0  0  4           0  0  0
   -0.7695   -0.0533    3.6789 C   0  0  0  0  0  4           0  0  0
   -0.6756   -0.0390   -1.2538 C   0  0  0  0  0  4           0  0  0
   -2.0752   -0.1708    1.2244 C   0  0  0  0  0  4           0  0  0
   -2.0897   -0.2649    3.7700 C   0  0  0  0  0  4           0  0  0
   -2.7652   -0.2674    0.0169 C   0  0  0  0  0  4           0  0  0
   -2.6589   -0.4564    5.1116 C   0  0  0  0  0  4           0  0  0
    1.9766    1.1151   -0.6438 C   0  0  0  0  0  4           0  0  0
    1.3651    0.5291    2.6787 C   0  0  2  0  0  4           0  0  0
    0.7555    1.3995   -4.4027 C   0  0  2  0  0  4           0  0  0
   -0.3633    1.1588   -3.3792 C   0  0  0  0  0  4           0  0  0
    0.5204   -1.1632   -3.0821 C   0  0  0  0  0  4           0  0  0
    1.5896   -0.8324   -4.1205 C   0  0  0  0  0  4           0  0  0
    1.8522    1.3012    3.8790 C   0  0  0  0  0  4           0  0  0
    1.8283    1.9560    2.5319 C   0  0  0  0  0  4           0  0  0
    0.3194    2.4326   -5.4403 C   0  0  0  0  0  4           0  0  0
  1  9  1  0     0  0
  2 10  2  0     0  0
  3 11  1  0     0  0
  3 19  1  0     0  0
  4 18  2  0     0  0
  5 18  1  0     0  0
  6 12  1  0     0  0
  6 13  1  0     0  0
  6 20  1  0     0  0
  7 14  1  0     0  0
  7 22  1  0     0  0
  7 23  1  0     0  0
  8 21  1  0     0  0
  8 24  1  0     0  0
  9 14  2  0     0  0
  9 17  1  0     0  0
 10 15  1  0     0  0
 10 16  1  0     0  0
 11 12  2  0     0  0
 11 14  1  0     0  0
 12 15  1  0     0  0
 13 16  2  0     0  0
 15 17  2  0     0  0
 16 18  1  0     0  0
 20 25  1  0     0  0
 20 26  1  0     0  0
 21 22  1  0     0  0
 21 27  1  0     0  0
 23 24  1  0     0  0
 25 26  1  0     0  0
M  END
> <standard_type>
pIC50

> <# Confs.>
25

> <canonical_smiles>
O=C1C(C(O)=O)=CN(C2CC2)C(C1=C3)=C(OC)C(N4CC(NCC4)C)=C3F

> <standard_relation>
=

> <Publication_ID>
nan

> <predicted_activity_value>
nan

> <actual_activity_value>
-2.113943352306837

> <Compound>
Gatifloxacin

> <standard_units>
uM

> hash
14180336456523802737

$$$$
21
XXILIB    08252103503D 0   0.00000     0.00000

 27 30  0     1  0            999 V2000
   -2.8062   -0.2493   -2.3101 F   0  0  0  0  0  1           0  0  0
   -4.0741   -0.3440    2.4630 O   0  0  0  0  0  2           0  0  0
    1.3660   -0.0000   -0.0000 O   0  0  0  0  0  2           0  0  0
   -3.6530   -1.1302    5.3367 O   0  0  0  0  0  2           0  0  0
   -1.9525    0.2010    6.0592 O   0  0  0  0  0  2           0  0  0
   -0.0401    0.1481    2.5205 N   0  0  2  0  0  3           0  0  0
   -0.0194    0.0568   -2.4712 N   0  0  2  0  0  3           0  0  0
    1.1353    0.4146   -5.0543 N   0  0  0  0  0  3           0  0  0
   -2.0715   -0.1897   -1.1877 C   0  0  0  0  0  4           0  0  0
   -2.8516   -0.2663    2.4898 C   0  0  0  0  0  4           0  0  0
    0.0000    0.0000    0.0000 C   0  0  0  0  0  4           0  0  0
   -0.6766    0.0000    1.2502 C   0  0  0  0  0  4           0  0  0
   -0.7695   -0.0533    3.6789 C   0  0  0  0  0  4           0  0  0
   -0.6756   -0.0390   -1.2538 C   0  0  0  0  0  4           0  0  0
   -2.0752   -0.1708    1.2244 C   0  0  0  0  0  4           0  0  0
   -2.0897   -0.2649    3.7700 C   0  0  0  0  0  4           0  0  0
   -2.7652   -0.2674    0.0169 C   0  0  0  0  0  4           0  0  0
   -2.6589   -0.4564    5.1116 C   0  0  0  0  0  4           0  0  0
    1.9766   -1.1151   -0.6438 C   0  0  0  0  0  4           0  0  0
    1.3651    0.5291    2.6787 C   0  0  2  0  0  4           0  0  0
    1.7838    1.0052   -3.8794 C   0  0  2  0  0  4           0  0  0
    0.7607    1.2661   -2.7649 C   0  0  0  0  0  4           0  0  0
   -0.5463   -0.6888   -3.6198 C   0  0  0  0  0  4           0  0  0
    0.5188   -0.8611   -4.7000 C   0  0  0  0  0  4           0  0  0
    2.4682   -0.4973    2.7396 C   0  0  0  0  0  4           0  0  0
    2.1181    0.2931    3.9630 C   0  0  0  0  0  4           0  0  0
    2.4732    2.3055   -4.2893 C   0  0  0  0  0  4           0  0  0
  1  9  1  0     0  0
  2 10  2  0     0  0
  3 11  1  0     0  0
  3 19  1  0     0  0
  4 18  2  0     0  0
  5 18  1  0     0  0
  6 12  1  0     0  0
  6 13  1  0     0  0
  6 20  1  0     0  0
  7 14  1  0     0  0
  7 22  1  0     0  0
  7 23  1  0     0  0
  8 21  1  0     0  0
  8 24  1  0     0  0
  9 14  2  0     0  0
  9 17  1  0     0  0
 10 15  1  0     0  0
 10 16  1  0     0  0
 11 12  2  0     0  0
 11 14  1  0     0  0
 12 15  1  0     0  0
 13 16  2  0     0  0
 15 17  2  0     0  0
 16 18  1  0     0  0
 20 25  1  0     0  0
 20 26  1  0     0  0
 21 22  1  0     0  0
 21 27  1  0     0  0
 23 24  1  0     0  0
 25 26  1  0     0  0
M  END
> <standard_type>
pIC50

> <# Confs.>
25

> <canonical_smiles>
O=C1C(C(O)=O)=CN(C2CC2)C(C1=C3)=C(OC)C(N4CC(NCC4)C)=C3F

> <standard_relation>
=

> <Publication_ID>
nan

> <predicted_activity_value>
nan

> <actual_activity_value>
-2.113943352306837

> <Compound>
Gatifloxacin

> <standard_units>
uM

> hash
14180336456523802737

$$$$
21
XXILIB    08252103503D 0   0.00000     0.00000

 27 30  0     1  0            999 V2000
   -2.8062   -0.2493   -2.3101 F   0  0  0  0  0  1           0  0  0
   -4.0741   -0.3440    2.4630 O   0  0  0  0  0  2           0  0  0
    1.3660   -0.0000   -0.0000 O   0  0  0  0  0  2           0  0  0
   -2.0486   -0.9623    6.0414 O   0  0  0  0  0  2           0  0  0
   -3.9325   -0.0078    5.1894 O   0  0  0  0  0  2           0  0  0
   -0.0401    0.1481    2.5205 N   0  0  2  0  0  3           0  0  0
   -0.0194    0.0568   -2.4712 N   0  0  2  0  0  3           0  0  0
    1.0928    0.2886   -5.0871 N   0  0  0  0  0  3           0  0  0
   -2.0715   -0.1897   -1.1877 C   0  0  0  0  0  4           0  0  0
   -2.8516   -0.2663    2.4898 C   0  0  0  0  0  4           0  0  0
    0.0000    0.0000    0.0000 C   0  0  0  0  0  4           0  0  0
   -0.6766    0.0000    1.2502 C   0  0  0  0  0  4           0  0  0
   -0.7695   -0.0533    3.6789 C   0  0  0  0  0  4           0  0  0
   -0.6756   -0.0390   -1.2538 C   0  0  0  0  0  4           0  0  0
   -2.0752   -0.1708    1.2244 C   0  0  0  0  0  4           0  0  0
   -2.0897   -0.2649    3.7700 C   0  0  0  0  0  4           0  0  0
   -2.7652   -0.2674    0.0169 C   0  0  0  0  0  4           0  0  0
   -2.6589   -0.4564    5.1116 C   0  0  0  0  0  4           0  0  0
    1.9766   -1.1151   -0.6438 C   0  0  0  0  0  4           0  0  0
    1.3651    0.5291    2.6787 C   0  0  2  0  0  4           0  0  0
    1.3112    1.3565   -4.1065 C   0  0  2  0  0  4           0  0  0
    0.1804    1.3836   -3.0684 C   0  0  0  0  0  4           0  0  0
   -0.0638   -1.0856   -3.3909 C   0  0  0  0  0  4           0  0  0
    1.0630   -1.0095   -4.4183 C   0  0  0  0  0  4           0  0  0
    1.8522    1.3012    3.8790 C   0  0  0  0  0  4           0  0  0
    1.8283    1.9560    2.5319 C   0  0  0  0  0  4           0  0  0
    1.4006    2.6954   -4.8368 C   0  0  0  0  0  4           0  0  0
  1  9  1  0     0  0
  2 10  2  0     0  0
  3 11  1  0     0  0
  3 19  1  0     0  0
  4 18  2  0     0  0
  5 18  1  0     0  0
  6 12  1  0     0  0
  6 13  1  0     0  0
  6 20  1  0     0  0
  7 14  1  0     0  0
  7 22  1  0     0  0
  7 23  1  0     0  0
  8 21  1  0     0  0
  8 24  1  0     0  0
  9 14  2  0     0  0
  9 17  1  0     0  0
 10 15  1  0     0  0
 10 16  1  0     0  0
 11 12  2  0     0  0
 11 14  1  0     0  0
 12 15  1  0     0  0
 13 16  2  0     0  0
 15 17  2  0     0  0
 16 18  1  0     0  0
 20 25  1  0     0  0
 20 26  1  0     0  0
 21 22  1  0     0  0
 21 27  1  0     0  0
 23 24  1  0     0  0
 25 26  1  0     0  0
M  END
> <standard_type>
pIC50

> <# Confs.>
25

> <canonical_smiles>
O=C1C(C(O)=O)=CN(C2CC2)C(C1=C3)=C(OC)C(N4CC(NCC4)C)=C3F

> <standard_relation>
=

> <Publication_ID>
nan

> <predicted_activity_value>
nan

> <actual_activity_value>
-2.113943352306837

> <Compound>
Gatifloxacin

> <standard_units>
uM

> hash
14180336456523802737

$$$$
21
XXILIB    08252103503D 0   0.00000     0.00000

 27 30  0     1  0            999 V2000
   -2.8062   -0.2493   -2.3101 F   0  0  0  0  0  1           0  0  0
   -4.0741   -0.3440    2.4630 O   0  0  0  0  0  2           0  0  0
    1.3660    0.0000   -0.0000 O   0  0  0  0  0  2           0  0  0
   -2.1901    0.0407    6.1245 O   0  0  0  0  0  2           0  0  0
   -3.7570   -1.2456    5.0871 O   0  0  0  0  0  2           0  0  0
   -0.0401    0.1481    2.5205 N   0  0  2  0  0  3           0  0  0
   -0.0199    0.0567   -2.4702 N   0  0  2  0  0  3           0  0  0
    1.1524    0.1890   -5.0667 N   0  0  0  0  0  3           0  0  0
   -2.0715   -0.1897   -1.1877 C   0  0  0  0  0  4           0  0  0
   -2.8516   -0.2663    2.4898 C   0  0  0  0  0  4           0  0  0
    0.0000    0.0000    0.0000 C   0  0  0  0  0  4           0  0  0
   -0.6766    0.0000    1.2502 C   0  0  0  0  0  4           0  0  0
   -0.7695   -0.0533    3.6789 C   0  0  0  0  0  4           0  0  0
   -0.6756   -0.0390   -1.2538 C   0  0  0  0  0  4           0  0  0
   -2.0752   -0.1708    1.2244 C   0  0  0  0  0  4           0  0  0
   -2.0897   -0.2649    3.7700 C   0  0  0  0  0  4           0  0  0
   -2.7652   -0.2674    0.0169 C   0  0  0  0  0  4           0  0  0
   -2.6589   -0.4564    5.1116 C   0  0  0  0  0  4           0  0  0
    1.9766    1.1151   -0.6438 C   0  0  0  0  0  4           0  0  0
    1.3651    0.5291    2.6787 C   0  0  2  0  0  4           0  0  0
    1.5749   -0.8555   -4.1283 C   0  0  2  0  0  4           0  0  0
    0.4553   -1.1690   -3.1254 C   0  0  0  0  0  4           0  0  0
   -0.2991    1.2032   -3.3420 C   0  0  0  0  0  4           0  0  0
    0.8348    1.4176   -4.3424 C   0  0  0  0  0  4           0  0  0
    1.8522    1.3012    3.8790 C   0  0  0  0  0  4           0  0  0
    1.8283    1.9560    2.5319 C   0  0  0  0  0  4           0  0  0
    1.9610   -2.1101   -4.9102 C   0  0  0  0  0  4           0  0  0
  1  9  1  0     0  0
  2 10  2  0     0  0
  3 11  1  0     0  0
  3 19  1  0     0  0
  4 18  2  0     0  0
  5 18  1  0     0  0
  6 12  1  0     0  0
  6 13  1  0     0  0
  6 20  1  0     0  0
  7 14  1  0     0  0
  7 22  1  0     0  0
  7 23  1  0     0  0
  8 21  1  0     0  0
  8 24  1  0     0  0
  9 14  2  0     0  0
  9 17  1  0     0  0
 10 15  1  0     0  0
 10 16  1  0     0  0
 11 12  2  0     0  0
 11 14  1  0     0  0
 12 15  1  0     0  0
 13 16  2  0     0  0
 15 17  2  0     0  0
 16 18  1  0     0  0
 20 25  1  0     0  0
 20 26  1  0     0  0
 21 22  1  0     0  0
 21 27  1  0     0  0
 23 24  1  0     0  0
 25 26  1  0     0  0
M  END
> <standard_type>
pIC50

> <# Confs.>
25

> <canonical_smiles>
O=C1C(C(O)=O)=CN(C2CC2)C(C1=C3)=C(OC)C(N4CC(NCC4)C)=C3F

> <standard_relation>
=

> <Publication_ID>
nan

> <predicted_activity_value>
nan

> <actual_activity_value>
-2.113943352306837

> <Compound>
Gatifloxacin

> <standard_units>
uM

> hash
14180336456523802737

$$$$
21
XXILIB    08252103503D 0   0.00000     0.00000

 27 30  0     1  0            999 V2000
   -2.8062   -0.2493   -2.3101 F   0  0  0  0  0  1           0  0  0
   -4.0741   -0.3440    2.4630 O   0  0  0  0  0  2           0  0  0
    1.3660   -0.0000    0.0000 O   0  0  0  0  0  2           0  0  0
   -2.1901    0.0407    6.1245 O   0  0  0  0  0  2           0  0  0
   -3.7570   -1.2456    5.0871 O   0  0  0  0  0  2           0  0  0
   -0.0401    0.1481    2.5205 N   0  0  2  0  0  3           0  0  0
   -0.0203    0.0566   -2.4693 N   0  0  2  0  0  3           0  0  0
    1.4074    0.2289   -4.9419 N   0  0  0  0  0  3           0  0  0
   -2.0715   -0.1897   -1.1877 C   0  0  0  0  0  4           0  0  0
   -2.8516   -0.2663    2.4898 C   0  0  0  0  0  4           0  0  0
    0.0000    0.0000    0.0000 C   0  0  0  0  0  4           0  0  0
   -0.6766    0.0000    1.2502 C   0  0  0  0  0  4           0  0  0
   -0.7695   -0.0533    3.6789 C   0  0  0  0  0  4           0  0  0
   -0.6756   -0.0390   -1.2538 C   0  0  0  0  0  4           0  0  0
   -2.0752   -0.1708    1.2244 C   0  0  0  0  0  4           0  0  0
   -2.0897   -0.2649    3.7700 C   0  0  0  0  0  4           0  0  0
   -2.7652   -0.2674    0.0169 C   0  0  0  0  0  4           0  0  0
   -2.6589   -0.4564    5.1116 C   0  0  0  0  0  4           0  0  0
    1.9766   -1.2876    0.0000 C   0  0  0  0  0  4           0  0  0
    1.3651    0.5291    2.6787 C   0  0  2  0  0  4           0  0  0
    0.9322    1.4544   -4.2868 C   0  0  2  0  0  4           0  0  0
    0.7621    1.2624   -2.7715 C   0  0  0  0  0  4           0  0  0
    0.3790   -1.1696   -3.1677 C   0  0  0  0  0  4           0  0  0
    0.5358   -0.9124   -4.6645 C   0  0  0  0  0  4           0  0  0
    1.7751    1.7751    3.4227 C   0  0  0  0  0  4           0  0  0
    1.9652    1.6972    1.9388 C   0  0  0  0  0  4           0  0  0
   -0.3435    1.9953   -4.9405 C   0  0  0  0  0  4           0  0  0
  1  9  1  0     0  0
  2 10  2  0     0  0
  3 11  1  0     0  0
  3 19  1  0     0  0
  4 18  2  0     0  0
  5 18  1  0     0  0
  6 12  1  0     0  0
  6 13  1  0     0  0
  6 20  1  0     0  0
  7 14  1  0     0  0
  7 22  1  0     0  0
  7 23  1  0     0  0
  8 21  1  0     0  0
  8 24  1  0     0  0
  9 14  2  0     0  0
  9 17  1  0     0  0
 10 15  1  0     0  0
 10 16  1  0     0  0
 11 12  2  0     0  0
 11 14  1  0     0  0
 12 15  1  0     0  0
 13 16  2  0     0  0
 15 17  2  0     0  0
 16 18  1  0     0  0
 20 25  1  0     0  0
 20 26  1  0     0  0
 21 22  1  0     0  0
 21 27  1  0     0  0
 23 24  1  0     0  0
 25 26  1  0     0  0
M  END
> <standard_type>
pIC50

> <# Confs.>
25

> <canonical_smiles>
O=C1C(C(O)=O)=CN(C2CC2)C(C1=C3)=C(OC)C(N4CC(NCC4)C)=C3F

> <standard_relation>
=

> <Publication_ID>
nan

> <predicted_activity_value>
nan

> <actual_activity_value>
-2.113943352306837

> <Compound>
Gatifloxacin

> <standard_units>
uM

> hash
14180336456523802737

$$$$
21
XXILIB    08252103503D 0   0.00000     0.00000

 27 30  0     1  0            999 V2000
   -2.8062   -0.2493   -2.3101 F   0  0  0  0  0  1           0  0  0
   -4.0741   -0.3440    2.4630 O   0  0  0  0  0  2           0  0  0
    1.3660    0.0000   -0.0000 O   0  0  0  0  0  2           0  0  0
   -3.6530   -1.1302    5.3367 O   0  0  0  0  0  2           0  0  0
   -1.9525    0.2010    6.0592 O   0  0  0  0  0  2           0  0  0
   -0.0401    0.1481    2.5205 N   0  0  2  0  0  3           0  0  0
   -0.0194    0.0568   -2.4712 N   0  0  2  0  0  3           0  0  0
    1.1125    0.1530   -5.0872 N   0  0  0  0  0  3           0  0  0
   -2.0715   -0.1897   -1.1877 C   0  0  0  0  0  4           0  0  0
   -2.8516   -0.2663    2.4898 C   0  0  0  0  0  4           0  0  0
    0.0000    0.0000    0.0000 C   0  0  0  0  0  4           0  0  0
   -0.6766    0.0000    1.2502 C   0  0  0  0  0  4           0  0  0
   -0.7695   -0.0533    3.6789 C   0  0  0  0  0  4           0  0  0
   -0.6756   -0.0390   -1.2538 C   0  0  0  0  0  4           0  0  0
   -2.0752   -0.1708    1.2244 C   0  0  0  0  0  4           0  0  0
   -2.0897   -0.2649    3.7700 C   0  0  0  0  0  4           0  0  0
   -2.7652   -0.2674    0.0169 C   0  0  0  0  0  4           0  0  0
   -2.6589   -0.4564    5.1116 C   0  0  0  0  0  4           0  0  0
    1.9766    1.1151   -0.6438 C   0  0  0  0  0  4           0  0  0
    1.3651    0.5291    2.6787 C   0  0  2  0  0  4           0  0  0
    0.7555    1.3995   -4.4027 C   0  0  2  0  0  4           0  0  0
   -0.3633    1.1588   -3.3792 C   0  0  0  0  0  4           0  0  0
    0.5204   -1.1632   -3.0821 C   0  0  0  0  0  4           0  0  0
    1.5896   -0.8324   -4.1205 C   0  0  0  0  0  4           0  0  0
    1.8522    1.3012    3.8790 C   0  0  0  0  0  4           0  0  0
    1.8283    1.9560    2.5319 C   0  0  0  0  0  4           0  0  0
    0.3194    2.4326   -5.4403 C   0  0  0  0  0  4           0  0  0
  1  9  1  0     0  0
  2 10  2  0     0  0
  3 11  1  0     0  0
  3 19  1  0     0  0
  4 18  2  0     0  0
  5 18  1  0     0  0
  6 12  1  0     0  0
  6 13  1  0     0  0
  6 20  1  0     0  0
  7 14  1  0     0  0
  7 22  1  0     0  0
  7 23  1  0     0  0
  8 21  1  0     0  0
  8 24  1  0     0  0
  9 14  2  0     0  0
  9 17  1  0     0  0
 10 15  1  0     0  0
 10 16  1  0     0  0
 11 12  2  0     0  0
 11 14  1  0     0  0
 12 15  1  0     0  0
 13 16  2  0     0  0
 15 17  2  0     0  0
 16 18  1  0     0  0
 20 25  1  0     0  0
 20 26  1  0     0  0
 21 22  1  0     0  0
 21 27  1  0     0  0
 23 24  1  0     0  0
 25 26  1  0     0  0
M  END
> <standard_type>
pIC50

> <# Confs.>
25

> <canonical_smiles>
O=C1C(C(O)=O)=CN(C2CC2)C(C1=C3)=C(OC)C(N4CC(NCC4)C)=C3F

> <standard_relation>
=

> <Publication_ID>
nan

> <predicted_activity_value>
nan

> <actual_activity_value>
-2.113943352306837

> <Compound>
Gatifloxacin

> <standard_units>
uM

> hash
14180336456523802737

$$$$
21
XXILIB    08252103503D 0   0.00000     0.00000

 27 30  0     1  0            999 V2000
   -2.8062   -0.2493   -2.3101 F   0  0  0  0  0  1           0  0  0
   -4.0741   -0.3440    2.4630 O   0  0  0  0  0  2           0  0  0
    1.3660    0.0000   -0.0000 O   0  0  0  0  0  2           0  0  0
   -3.6530   -1.1302    5.3367 O   0  0  0  0  0  2           0  0  0
   -1.9525    0.2010    6.0592 O   0  0  0  0  0  2           0  0  0
   -0.0401    0.1481    2.5205 N   0  0  2  0  0  3           0  0  0
   -0.0199    0.0567   -2.4702 N   0  0  2  0  0  3           0  0  0
    1.1524    0.1890   -5.0667 N   0  0  0  0  0  3           0  0  0
   -2.0715   -0.1897   -1.1877 C   0  0  0  0  0  4           0  0  0
   -2.8516   -0.2663    2.4898 C   0  0  0  0  0  4           0  0  0
    0.0000    0.0000    0.0000 C   0  0  0  0  0  4           0  0  0
   -0.6766    0.0000    1.2502 C   0  0  0  0  0  4           0  0  0
   -0.7695   -0.0533    3.6789 C   0  0  0  0  0  4           0  0  0
   -0.6756   -0.0390   -1.2538 C   0  0  0  0  0  4           0  0  0
   -2.0752   -0.1708    1.2244 C   0  0  0  0  0  4           0  0  0
   -2.0897   -0.2649    3.7700 C   0  0  0  0  0  4           0  0  0
   -2.7652   -0.2674    0.0169 C   0  0  0  0  0  4           0  0  0
   -2.6589   -0.4564    5.1116 C   0  0  0  0  0  4           0  0  0
    1.9766    1.1151   -0.6438 C   0  0  0  0  0  4           0  0  0
    1.3651    0.5291    2.6787 C   0  0  2  0  0  4           0  0  0
    1.5749   -0.8555   -4.1283 C   0  0  2  0  0  4           0  0  0
    0.4553   -1.1690   -3.1254 C   0  0  0  0  0  4           0  0  0
   -0.2991    1.2032   -3.3420 C   0  0  0  0  0  4           0  0  0
    0.8348    1.4176   -4.3424 C   0  0  0  0  0  4           0  0  0
    1.8522    1.3012    3.8790 C   0  0  0  0  0  4           0  0  0
    1.8283    1.9560    2.5319 C   0  0  0  0  0  4           0  0  0
    1.9610   -2.1101   -4.9102 C   0  0  0  0  0  4           0  0  0
  1  9  1  0     0  0
  2 10  2  0     0  0
  3 11  1  0     0  0
  3 19  1  0     0  0
  4 18  2  0     0  0
  5 18  1  0     0  0
  6 12  1  0     0  0
  6 13  1  0     0  0
  6 20  1  0     0  0
  7 14  1  0     0  0
  7 22  1  0     0  0
  7 23  1  0     0  0
  8 21  1  0     0  0
  8 24  1  0     0  0
  9 14  2  0     0  0
  9 17  1  0     0  0
 10 15  1  0     0  0
 10 16  1  0     0  0
 11 12  2  0     0  0
 11 14  1  0     0  0
 12 15  1  0     0  0
 13 16  2  0     0  0
 15 17  2  0     0  0
 16 18  1  0     0  0
 20 25  1  0     0  0
 20 26  1  0     0  0
 21 22  1  0     0  0
 21 27  1  0     0  0
 23 24  1  0     0  0
 25 26  1  0     0  0
M  END
> <standard_type>
pIC50

> <# Confs.>
25

> <canonical_smiles>
O=C1C(C(O)=O)=CN(C2CC2)C(C1=C3)=C(OC)C(N4CC(NCC4)C)=C3F

> <standard_relation>
=

> <Publication_ID>
nan

> <predicted_activity_value>
nan

> <actual_activity_value>
-2.113943352306837

> <Compound>
Gatifloxacin

> <standard_units>
uM

> hash
14180336456523802737

$$$$
21
XXILIB    08252103503D 0   0.00000     0.00000

 27 30  0     1  0            999 V2000
   -2.8062   -0.2493   -2.3101 F   0  0  0  0  0  1           0  0  0
   -4.0741   -0.3440    2.4630 O   0  0  0  0  0  2           0  0  0
    1.3660   -0.0000   -0.0000 O   0  0  0  0  0  2           0  0  0
   -2.1901    0.0407    6.1245 O   0  0  0  0  0  2           0  0  0
   -3.7570   -1.2456    5.0871 O   0  0  0  0  0  2           0  0  0
   -0.0401    0.1481    2.5205 N   0  0  2  0  0  3           0  0  0
   -0.0199    0.0567   -2.4702 N   0  0  2  0  0  3           0  0  0
    1.1441    0.2974   -5.0627 N   0  0  0  0  0  3           0  0  0
   -2.0715   -0.1897   -1.1877 C   0  0  0  0  0  4           0  0  0
   -2.8516   -0.2663    2.4898 C   0  0  0  0  0  4           0  0  0
    0.0000    0.0000    0.0000 C   0  0  0  0  0  4           0  0  0
   -0.6766    0.0000    1.2502 C   0  0  0  0  0  4           0  0  0
   -0.7695   -0.0533    3.6789 C   0  0  0  0  0  4           0  0  0
   -0.6756   -0.0390   -1.2538 C   0  0  0  0  0  4           0  0  0
   -2.0752   -0.1708    1.2244 C   0  0  0  0  0  4           0  0  0
   -2.0897   -0.2649    3.7700 C   0  0  0  0  0  4           0  0  0
   -2.7652   -0.2674    0.0169 C   0  0  0  0  0  4           0  0  0
   -2.6589   -0.4564    5.1116 C   0  0  0  0  0  4           0  0  0
    1.9766   -1.1151   -0.6438 C   0  0  0  0  0  4           0  0  0
    1.3651    0.5291    2.6787 C   0  0  2  0  0  4           0  0  0
    1.0396   -1.0212   -4.4298 C   0  0  2  0  0  4           0  0  0
   -0.1238   -1.0517   -3.4283 C   0  0  0  0  0  4           0  0  0
    0.2568    1.3852   -3.0280 C   0  0  0  0  0  4           0  0  0
    1.3891    1.3230   -4.0511 C   0  0  0  0  0  4           0  0  0
    2.4682   -0.4973    2.7396 C   0  0  0  0  0  4           0  0  0
    2.1181    0.2931    3.9630 C   0  0  0  0  0  4           0  0  0
    0.8458   -2.0849   -5.5094 C   0  0  0  0  0  4           0  0  0
  1  9  1  0     0  0
  2 10  2  0     0  0
  3 11  1  0     0  0
  3 19  1  0     0  0
  4 18  2  0     0  0
  5 18  1  0     0  0
  6 12  1  0     0  0
  6 13  1  0     0  0
  6 20  1  0     0  0
  7 14  1  0     0  0
  7 22  1  0     0  0
  7 23  1  0     0  0
  8 21  1  0     0  0
  8 24  1  0     0  0
  9 14  2  0     0  0
  9 17  1  0     0  0
 10 15  1  0     0  0
 10 16  1  0     0  0
 11 12  2  0     0  0
 11 14  1  0     0  0
 12 15  1  0     0  0
 13 16  2  0     0  0
 15 17  2  0     0  0
 16 18  1  0     0  0
 20 25  1  0     0  0
 20 26  1  0     0  0
 21 22  1  0     0  0
 21 27  1  0     0  0
 23 24  1  0     0  0
 25 26  1  0     0  0
M  END
> <standard_type>
pIC50

> <# Confs.>
25

> <canonical_smiles>
O=C1C(C(O)=O)=CN(C2CC2)C(C1=C3)=C(OC)C(N4CC(NCC4)C)=C3F

> <standard_relation>
=

> <Publication_ID>
nan

> <predicted_activity_value>
nan

> <actual_activity_value>
-2.113943352306837

> <Compound>
Gatifloxacin

> <standard_units>
uM

> hash
14180336456523802737

$$$$
21
XXILIB    08252103503D 0   0.00000     0.00000

 27 30  0     1  0            999 V2000
   -2.8062   -0.2493   -2.3101 F   0  0  0  0  0  1           0  0  0
   -4.0741   -0.3440    2.4630 O   0  0  0  0  0  2           0  0  0
    1.3660   -0.0000   -0.0000 O   0  0  0  0  0  2           0  0  0
   -2.1901    0.0407    6.1245 O   0  0  0  0  0  2           0  0  0
   -3.7570   -1.2456    5.0871 O   0  0  0  0  0  2           0  0  0
   -0.0401    0.1481    2.5205 N   0  0  2  0  0  3           0  0  0
   -0.0247    0.0560   -2.4612 N   0  0  2  0  0  3           0  0  0
   -0.3644    1.2252   -5.0309 N   0  0  0  0  0  3           0  0  0
   -2.0715   -0.1897   -1.1877 C   0  0  0  0  0  4           0  0  0
   -2.8516   -0.2663    2.4898 C   0  0  0  0  0  4           0  0  0
    0.0000    0.0000    0.0000 C   0  0  0  0  0  4           0  0  0
   -0.6766    0.0000    1.2502 C   0  0  0  0  0  4           0  0  0
   -0.7695   -0.0533    3.6789 C   0  0  0  0  0  4           0  0  0
   -0.6756   -0.0390   -1.2538 C   0  0  0  0  0  4           0  0  0
   -2.0752   -0.1708    1.2244 C   0  0  0  0  0  4           0  0  0
   -2.0897   -0.2649    3.7700 C   0  0  0  0  0  4           0  0  0
   -2.7652   -0.2674    0.0169 C   0  0  0  0  0  4           0  0  0
   -2.6589   -0.4564    5.1116 C   0  0  0  0  0  4           0  0  0
    1.9766   -1.1151   -0.6438 C   0  0  0  0  0  4           0  0  0
    1.3651    0.5291    2.6787 C   0  0  2  0  0  4           0  0  0
   -0.0079    2.0541   -3.8649 C   0  0  2  0  0  4           0  0  0
    0.7715    1.2324   -2.8221 C   0  0  0  0  0  4           0  0  0
   -0.3733   -0.7999   -3.5973 C   0  0  0  0  0  4           0  0  0
   -1.1335    0.0413   -4.6258 C   0  0  0  0  0  4           0  0  0
    2.4682   -0.4973    2.7396 C   0  0  0  0  0  4           0  0  0
    2.1181    0.2931    3.9630 C   0  0  0  0  0  4           0  0  0
    0.8200    3.2470   -4.3374 C   0  0  0  0  0  4           0  0  0
  1  9  1  0     0  0
  2 10  2  0     0  0
  3 11  1  0     0  0
  3 19  1  0     0  0
  4 18  2  0     0  0
  5 18  1  0     0  0
  6 12  1  0     0  0
  6 13  1  0     0  0
  6 20  1  0     0  0
  7 14  1  0     0  0
  7 22  1  0     0  0
  7 23  1  0     0  0
  8 21  1  0     0  0
  8 24  1  0     0  0
  9 14  2  0     0  0
  9 17  1  0     0  0
 10 15  1  0     0  0
 10 16  1  0     0  0
 11 12  2  0     0  0
 11 14  1  0     0  0
 12 15  1  0     0  0
 13 16  2  0     0  0
 15 17  2  0     0  0
 16 18  1  0     0  0
 20 25  1  0     0  0
 20 26  1  0     0  0
 21 22  1  0     0  0
 21 27  1  0     0  0
 23 24  1  0     0  0
 25 26  1  0     0  0
M  END
> <standard_type>
pIC50

> <# Confs.>
25

> <canonical_smiles>
O=C1C(C(O)=O)=CN(C2CC2)C(C1=C3)=C(OC)C(N4CC(NCC4)C)=C3F

> <standard_relation>
=

> <Publication_ID>
nan

> <predicted_activity_value>
nan

> <actual_activity_value>
-2.113943352306837

> <Compound>
Gatifloxacin

> <standard_units>
uM

> hash
14180336456523802737

$$$$
21
XXILIB    08252103503D 0   0.00000     0.00000

 27 30  0     1  0            999 V2000
   -2.8062   -0.2493   -2.3101 F   0  0  0  0  0  1           0  0  0
   -4.0741   -0.3440    2.4630 O   0  0  0  0  0  2           0  0  0
    1.3660    0.0000   -0.0000 O   0  0  0  0  0  2           0  0  0
   -3.5072    0.2754    5.5992 O   0  0  0  0  0  2           0  0  0
   -2.1312   -1.5340    5.7358 O   0  0  0  0  0  2           0  0  0
   -0.0401    0.1481    2.5205 N   0  0  2  0  0  3           0  0  0
   -0.0199    0.0567   -2.4702 N   0  0  2  0  0  3           0  0  0
    1.2073    0.0977   -5.0443 N   0  0  0  0  0  3           0  0  0
   -2.0715   -0.1897   -1.1877 C   0  0  0  0  0  4           0  0  0
   -2.8516   -0.2663    2.4898 C   0  0  0  0  0  4           0  0  0
    0.0000    0.0000    0.0000 C   0  0  0  0  0  4           0  0  0
   -0.6766    0.0000    1.2502 C   0  0  0  0  0  4           0  0  0
   -0.7695   -0.0533    3.6789 C   0  0  0  0  0  4           0  0  0
   -0.6756   -0.0390   -1.2538 C   0  0  0  0  0  4           0  0  0
   -2.0752   -0.1708    1.2244 C   0  0  0  0  0  4           0  0  0
   -2.0897   -0.2649    3.7700 C   0  0  0  0  0  4           0  0  0
   -2.7652   -0.2674    0.0169 C   0  0  0  0  0  4           0  0  0
   -2.6589   -0.4564    5.1116 C   0  0  0  0  0  4           0  0  0
    1.9766    1.1151   -0.6438 C   0  0  0  0  0  4           0  0  0
    1.3651    0.5291    2.6787 C   0  0  2  0  0  4           0  0  0
    1.9552   -0.4056   -3.8879 C   0  0  2  0  0  4           0  0  0
    0.9978   -0.9446   -2.8153 C   0  0  0  0  0  4           0  0  0
   -0.6898    0.7273   -3.5901 C   0  0  0  0  0  4           0  0  0
    0.3233    1.1872   -4.6363 C   0  0  0  0  0  4           0  0  0
    1.8522    1.3012    3.8790 C   0  0  0  0  0  4           0  0  0
    1.8283    1.9560    2.5319 C   0  0  0  0  0  4           0  0  0
    2.9171   -1.5004   -4.3468 C   0  0  0  0  0  4           0  0  0
  1  9  1  0     0  0
  2 10  2  0     0  0
  3 11  1  0     0  0
  3 19  1  0     0  0
  4 18  2  0     0  0
  5 18  1  0     0  0
  6 12  1  0     0  0
  6 13  1  0     0  0
  6 20  1  0     0  0
  7 14  1  0     0  0
  7 22  1  0     0  0
  7 23  1  0     0  0
  8 21  1  0     0  0
  8 24  1  0     0  0
  9 14  2  0     0  0
  9 17  1  0     0  0
 10 15  1  0     0  0
 10 16  1  0     0  0
 11 12  2  0     0  0
 11 14  1  0     0  0
 12 15  1  0     0  0
 13 16  2  0     0  0
 15 17  2  0     0  0
 16 18  1  0     0  0
 20 25  1  0     0  0
 20 26  1  0     0  0
 21 22  1  0     0  0
 21 27  1  0     0  0
 23 24  1  0     0  0
 25 26  1  0     0  0
M  END
> <standard_type>
pIC50

> <# Confs.>
25

> <canonical_smiles>
O=C1C(C(O)=O)=CN(C2CC2)C(C1=C3)=C(OC)C(N4CC(NCC4)C)=C3F

> <standard_relation>
=

> <Publication_ID>
nan

> <predicted_activity_value>
nan

> <actual_activity_value>
-2.113943352306837

> <Compound>
Gatifloxacin

> <standard_units>
uM

> hash
14180336456523802737

$$$$
21
XXILIB    08252103503D 0   0.00000     0.00000

 27 30  0     1  0            999 V2000
   -2.8062   -0.2493   -2.3101 F   0  0  0  0  0  1           0  0  0
   -4.0741   -0.3440    2.4630 O   0  0  0  0  0  2           0  0  0
    1.3660    0.0000   -0.0000 O   0  0  0  0  0  2           0  0  0
   -2.1901    0.0407    6.1245 O   0  0  0  0  0  2           0  0  0
   -3.7570   -1.2456    5.0871 O   0  0  0  0  0  2           0  0  0
   -0.0401    0.1481    2.5205 N   0  0  2  0  0  3           0  0  0
   -0.0194    0.0568   -2.4712 N   0  0  2  0  0  3           0  0  0
    1.1125    0.1530   -5.0872 N   0  0  0  0  0  3           0  0  0
   -2.0715   -0.1897   -1.1877 C   0  0  0  0  0  4           0  0  0
   -2.8516   -0.2663    2.4898 C   0  0  0  0  0  4           0  0  0
    0.0000    0.0000    0.0000 C   0  0  0  0  0  4           0  0  0
   -0.6766    0.0000    1.2502 C   0  0  0  0  0  4           0  0  0
   -0.7695   -0.0533    3.6789 C   0  0  0  0  0  4           0  0  0
   -0.6756   -0.0390   -1.2538 C   0  0  0  0  0  4           0  0  0
   -2.0752   -0.1708    1.2244 C   0  0  0  0  0  4           0  0  0
   -2.0897   -0.2649    3.7700 C   0  0  0  0  0  4           0  0  0
   -2.7652   -0.2674    0.0169 C   0  0  0  0  0  4           0  0  0
   -2.6589   -0.4564    5.1116 C   0  0  0  0  0  4           0  0  0
    1.9766    1.1151   -0.6438 C   0  0  0  0  0  4           0  0  0
    1.3651    0.5291    2.6787 C   0  0  2  0  0  4           0  0  0
    0.7555    1.3995   -4.4027 C   0  0  2  0  0  4           0  0  0
   -0.3633    1.1588   -3.3792 C   0  0  0  0  0  4           0  0  0
    0.5204   -1.1632   -3.0821 C   0  0  0  0  0  4           0  0  0
    1.5896   -0.8324   -4.1205 C   0  0  0  0  0  4           0  0  0
    2.4682   -0.4973    2.7396 C   0  0  0  0  0  4           0  0  0
    2.1181    0.2931    3.9630 C   0  0  0  0  0  4           0  0  0
    0.3194    2.4326   -5.4403 C   0  0  0  0  0  4           0  0  0
  1  9  1  0     0  0
  2 10  2  0     0  0
  3 11  1  0     0  0
  3 19  1  0     0  0
  4 18  2  0     0  0
  5 18  1  0     0  0
  6 12  1  0     0  0
  6 13  1  0     0  0
  6 20  1  0     0  0
  7 14  1  0     0  0
  7 22  1  0     0  0
  7 23  1  0     0  0
  8 21  1  0     0  0
  8 24  1  0     0  0
  9 14  2  0     0  0
  9 17  1  0     0  0
 10 15  1  0     0  0
 10 16  1  0     0  0
 11 12  2  0     0  0
 11 14  1  0     0  0
 12 15  1  0     0  0
 13 16  2  0     0  0
 15 17  2  0     0  0
 16 18  1  0     0  0
 20 25  1  0     0  0
 20 26  1  0     0  0
 21 22  1  0     0  0
 21 27  1  0     0  0
 23 24  1  0     0  0
 25 26  1  0     0  0
M  END
> <standard_type>
pIC50

> <# Confs.>
25

> <canonical_smiles>
O=C1C(C(O)=O)=CN(C2CC2)C(C1=C3)=C(OC)C(N4CC(NCC4)C)=C3F

> <standard_relation>
=

> <Publication_ID>
nan

> <predicted_activity_value>
nan

> <actual_activity_value>
-2.113943352306837

> <Compound>
Gatifloxacin

> <standard_units>
uM

> hash
14180336456523802737

$$$$
14
XXILIB    08252103503D 0   0.00000     0.00000

 19 20  0     1  0            999 V2000
    1.4248   -0.0000   -0.0000 O   0  0  0  0  0  2           0  0  0
    4.3056    0.0000   -2.4171 N   0  0  1  0  0  3           0  0  0
   -0.4830    0.0000    1.4267 C   0  0  0  0  0  4           0  0  0
   -0.5433   -1.1682   -0.7916 C   0  0  0  0  0  4           0  0  0
   -1.6927    0.6280    1.7584 C   0  0  0  0  0  4           0  0  0
    0.2663   -0.5995    2.4512 C   0  0  0  0  0  4           0  0  0
   -1.7882   -1.0654   -1.4301 C   0  0  0  0  0  4           0  0  0
    0.1633   -2.3774   -0.8870 C   0  0  0  0  0  4           0  0  0
   -2.1454    0.6486    3.0792 C   0  0  0  0  0  4           0  0  0
   -0.1879   -0.5786    3.7712 C   0  0  0  0  0  4           0  0  0
   -2.3090   -2.1411   -2.1521 C   0  0  0  0  0  4           0  0  0
   -0.3584   -3.4518   -1.6098 C   0  0  0  0  0  4           0  0  0
   -1.3937    0.0444    4.0846 C   0  0  0  0  0  4           0  0  0
   -1.5935   -3.3331   -2.2428 C   0  0  0  0  0  4           0  0  0
    0.0000    0.0000    0.0000 C   0  0  2  0  0  4           0  0  0
    2.0031    0.0000   -1.3027 C   0  0  0  0  0  4           0  0  0
    3.5206   -0.0000   -1.1789 C   0  0  0  0  0  4           0  0  0
    5.7371   -0.0000   -2.1073 C   0  0  0  0  0  4           0  0  0
    3.9789   -1.1495   -3.2647 C   0  0  0  0  0  4           0  0  0
  1 15  1  0     0  0
  1 16  1  0     0  0
  2 17  1  0     0  0
  2 18  1  0     0  0
  2 19  1  0     0  0
  3  5  2  0     0  0
  3  6  1  0     0  0
  3 15  1  0     0  0
  4  7  2  0     0  0
  4  8  1  0     0  0
  4 15  1  0     0  0
  5  9  1  0     0  0
  6 10  2  0     0  0
  7 11  1  0     0  0
  8 12  2  0     0  0
  9 13  2  0     0  0
 10 13  1  0     0  0
 11 14  2  0     0  0
 12 14  1  0     0  0
 16 17  1  0     0  0
M  END
> <standard_type>
pIC50

> <# Confs.>
25

> <canonical_smiles>
CN(CCOC(C1=CC=CC=C1)C2=CC=CC=C2)C

> <standard_relation>
=

> <Publication_ID>
nan

> <predicted_activity_value>
nan

> <actual_activity_value>
-1.4771212547196624

> <Compound>
Diphenhydramine

> <standard_units>
uM

> hash
9891127471022406753

$$$$
14
XXILIB    08252103503D 0   0.00000     0.00000

 19 20  0     1  0            999 V2000
    1.4248    0.0000   -0.0000 O   0  0  0  0  0  2           0  0  0
    4.3056    2.0933    1.2086 N   0  0  1  0  0  3           0  0  0
   -0.4830    0.0000    1.4267 C   0  0  0  0  0  4           0  0  0
   -0.5433   -1.1682   -0.7916 C   0  0  0  0  0  4           0  0  0
   -1.6927    0.6280    1.7584 C   0  0  0  0  0  4           0  0  0
    0.2663   -0.5995    2.4512 C   0  0  0  0  0  4           0  0  0
   -1.7882   -1.0654   -1.4301 C   0  0  0  0  0  4           0  0  0
    0.1633   -2.3774   -0.8870 C   0  0  0  0  0  4           0  0  0
   -2.1454    0.6486    3.0792 C   0  0  0  0  0  4           0  0  0
   -0.1879   -0.5786    3.7712 C   0  0  0  0  0  4           0  0  0
   -2.3090   -2.1411   -2.1521 C   0  0  0  0  0  4           0  0  0
   -0.3584   -3.4518   -1.6098 C   0  0  0  0  0  4           0  0  0
   -1.3937    0.0444    4.0846 C   0  0  0  0  0  4           0  0  0
   -1.5935   -3.3331   -2.2428 C   0  0  0  0  0  4           0  0  0
    0.0000    0.0000    0.0000 C   0  0  2  0  0  4           0  0  0
    2.0031    1.1282    0.6513 C   0  0  0  0  0  4           0  0  0
    3.5206    1.0210    0.5895 C   0  0  0  0  0  4           0  0  0
    5.7371    1.8249    1.0536 C   0  0  0  0  0  4           0  0  0
    3.9789    3.4020    0.6368 C   0  0  0  0  0  4           0  0  0
  1 15  1  0     0  0
  1 16  1  0     0  0
  2 17  1  0     0  0
  2 18  1  0     0  0
  2 19  1  0     0  0
  3  5  2  0     0  0
  3  6  1  0     0  0
  3 15  1  0     0  0
  4  7  2  0     0  0
  4  8  1  0     0  0
  4 15  1  0     0  0
  5  9  1  0     0  0
  6 10  2  0     0  0
  7 11  1  0     0  0
  8 12  2  0     0  0
  9 13  2  0     0  0
 10 13  1  0     0  0
 11 14  2  0     0  0
 12 14  1  0     0  0
 16 17  1  0     0  0
M  END
> <standard_type>
pIC50

> <# Confs.>
25

> <canonical_smiles>
CN(CCOC(C1=CC=CC=C1)C2=CC=CC=C2)C

> <standard_relation>
=

> <Publication_ID>
nan

> <predicted_activity_value>
nan

> <actual_activity_value>
-1.4771212547196624

> <Compound>
Diphenhydramine

> <standard_units>
uM

> hash
9891127471022406753

$$$$
14
XXILIB    08252103503D 0   0.00000     0.00000

 19 20  0     1  0            999 V2000
    1.4248   -0.0000   -0.0000 O   0  0  0  0  0  2           0  0  0
    4.3056    0.0000   -2.4171 N   0  0  1  0  0  3           0  0  0
   -0.4830   -0.0000    1.4267 C   0  0  0  0  0  4           0  0  0
   -0.5433   -1.1682   -0.7916 C   0  0  0  0  0  4           0  0  0
   -1.6927    0.6280    1.7584 C   0  0  0  0  0  4           0  0  0
    0.2663   -0.5995    2.4512 C   0  0  0  0  0  4           0  0  0
   -0.7731   -2.3989   -0.1589 C   0  0  0  0  0  4           0  0  0
   -0.8057   -1.0597   -2.1664 C   0  0  0  0  0  4           0  0  0
   -2.1454    0.6486    3.0792 C   0  0  0  0  0  4           0  0  0
   -0.1879   -0.5786    3.7712 C   0  0  0  0  0  4           0  0  0
   -1.2605   -3.4904   -0.8807 C   0  0  0  0  0  4           0  0  0
   -1.2937   -2.1517   -2.8865 C   0  0  0  0  0  4           0  0  0
   -1.3937    0.0444    4.0846 C   0  0  0  0  0  4           0  0  0
   -1.5217   -3.3660   -2.2435 C   0  0  0  0  0  4           0  0  0
    0.0000    0.0000    0.0000 C   0  0  2  0  0  4           0  0  0
    2.0031    0.0000   -1.3027 C   0  0  0  0  0  4           0  0  0
    3.5206   -0.0000   -1.1789 C   0  0  0  0  0  4           0  0  0
    5.7371   -0.0000   -2.1073 C   0  0  0  0  0  4           0  0  0
    3.9789   -1.1495   -3.2647 C   0  0  0  0  0  4           0  0  0
  1 15  1  0     0  0
  1 16  1  0     0  0
  2 17  1  0     0  0
  2 18  1  0     0  0
  2 19  1  0     0  0
  3  5  2  0     0  0
  3  6  1  0     0  0
  3 15  1  0     0  0
  4  7  2  0     0  0
  4  8  1  0     0  0
  4 15  1  0     0  0
  5  9  1  0     0  0
  6 10  2  0     0  0
  7 11  1  0     0  0
  8 12  2  0     0  0
  9 13  2  0     0  0
 10 13  1  0     0  0
 11 14  2  0     0  0
 12 14  1  0     0  0
 16 17  1  0     0  0
M  END
> <standard_type>
pIC50

> <# Confs.>
25

> <canonical_smiles>
CN(CCOC(C1=CC=CC=C1)C2=CC=CC=C2)C

> <standard_relation>
=

> <Publication_ID>
nan

> <predicted_activity_value>
nan

> <actual_activity_value>
-1.4771212547196624

> <Compound>
Diphenhydramine

> <standard_units>
uM

> hash
9891127471022406753

$$$$
14
XXILIB    08252103503D 0   0.00000     0.00000

 19 20  0     1  0            999 V2000
    1.4248    0.0000   -0.0000 O   0  0  0  0  0  2           0  0  0
    4.3056    2.0933    1.2086 N   0  0  1  0  0  3           0  0  0
   -0.4830    0.0000    1.4267 C   0  0  0  0  0  4           0  0  0
   -0.5433   -1.1682   -0.7916 C   0  0  0  0  0  4           0  0  0
   -0.6853    1.2142    2.0995 C   0  0  0  0  0  4           0  0  0
   -0.7171   -1.1989    2.1183 C   0  0  0  0  0  4           0  0  0
   -1.7882   -1.0654   -1.4301 C   0  0  0  0  0  4           0  0  0
    0.1633   -2.3774   -0.8870 C   0  0  0  0  0  4           0  0  0
   -1.1185    1.2291    3.4268 C   0  0  0  0  0  4           0  0  0
   -1.1510   -1.1824    3.4452 C   0  0  0  0  0  4           0  0  0
   -2.3090   -2.1411   -2.1521 C   0  0  0  0  0  4           0  0  0
   -0.3584   -3.4518   -1.6098 C   0  0  0  0  0  4           0  0  0
   -1.3524    0.0311    4.0985 C   0  0  0  0  0  4           0  0  0
   -1.5935   -3.3331   -2.2428 C   0  0  0  0  0  4           0  0  0
    0.0000    0.0000    0.0000 C   0  0  2  0  0  4           0  0  0
    2.0031    1.1282    0.6513 C   0  0  0  0  0  4           0  0  0
    3.5206    1.0210    0.5895 C   0  0  0  0  0  4           0  0  0
    3.9952    2.1859    2.6369 C   0  0  0  0  0  4           0  0  0
    5.7441    1.8868    1.0233 C   0  0  0  0  0  4           0  0  0
  1 15  1  0     0  0
  1 16  1  0     0  0
  2 17  1  0     0  0
  2 18  1  0     0  0
  2 19  1  0     0  0
  3  5  2  0     0  0
  3  6  1  0     0  0
  3 15  1  0     0  0
  4  7  2  0     0  0
  4  8  1  0     0  0
  4 15  1  0     0  0
  5  9  1  0     0  0
  6 10  2  0     0  0
  7 11  1  0     0  0
  8 12  2  0     0  0
  9 13  2  0     0  0
 10 13  1  0     0  0
 11 14  2  0     0  0
 12 14  1  0     0  0
 16 17  1  0     0  0
M  END
> <standard_type>
pIC50

> <# Confs.>
25

> <canonical_smiles>
CN(CCOC(C1=CC=CC=C1)C2=CC=CC=C2)C

> <standard_relation>
=

> <Publication_ID>
nan

> <predicted_activity_value>
nan

> <actual_activity_value>
-1.4771212547196624

> <Compound>
Diphenhydramine

> <standard_units>
uM

> hash
9891127471022406753

$$$$
14
XXILIB    08252103503D 0   0.00000     0.00000

 19 20  0     1  0            999 V2000
    1.4248   -0.0000   -0.0000 O   0  0  0  0  0  2           0  0  0
    4.3056    0.0000   -2.4171 N   0  0  1  0  0  3           0  0  0
   -0.4830    0.0000    1.4267 C   0  0  0  0  0  4           0  0  0
   -0.5433   -1.1682   -0.7916 C   0  0  0  0  0  4           0  0  0
   -0.6853    1.2142    2.0995 C   0  0  0  0  0  4           0  0  0
   -0.7171   -1.1989    2.1183 C   0  0  0  0  0  4           0  0  0
   -1.7882   -1.0654   -1.4301 C   0  0  0  0  0  4           0  0  0
    0.1633   -2.3774   -0.8870 C   0  0  0  0  0  4           0  0  0
   -1.1185    1.2291    3.4268 C   0  0  0  0  0  4           0  0  0
   -1.1510   -1.1824    3.4452 C   0  0  0  0  0  4           0  0  0
   -2.3090   -2.1411   -2.1521 C   0  0  0  0  0  4           0  0  0
   -0.3584   -3.4518   -1.6098 C   0  0  0  0  0  4           0  0  0
   -1.3524    0.0311    4.0985 C   0  0  0  0  0  4           0  0  0
   -1.5935   -3.3331   -2.2428 C   0  0  0  0  0  4           0  0  0
    0.0000    0.0000    0.0000 C   0  0  2  0  0  4           0  0  0
    2.0031    0.0000   -1.3027 C   0  0  0  0  0  4           0  0  0
    3.5206   -0.0000   -1.1789 C   0  0  0  0  0  4           0  0  0
    5.7371   -0.0000   -2.1073 C   0  0  0  0  0  4           0  0  0
    3.9789   -1.1495   -3.2647 C   0  0  0  0  0  4           0  0  0
  1 15  1  0     0  0
  1 16  1  0     0  0
  2 17  1  0     0  0
  2 18  1  0     0  0
  2 19  1  0     0  0
  3  5  2  0     0  0
  3  6  1  0     0  0
  3 15  1  0     0  0
  4  7  2  0     0  0
  4  8  1  0     0  0
  4 15  1  0     0  0
  5  9  1  0     0  0
  6 10  2  0     0  0
  7 11  1  0     0  0
  8 12  2  0     0  0
  9 13  2  0     0  0
 10 13  1  0     0  0
 11 14  2  0     0  0
 12 14  1  0     0  0
 16 17  1  0     0  0
M  END
> <standard_type>
pIC50

> <# Confs.>
25

> <canonical_smiles>
CN(CCOC(C1=CC=CC=C1)C2=CC=CC=C2)C

> <standard_relation>
=

> <Publication_ID>
nan

> <predicted_activity_value>
nan

> <actual_activity_value>
-1.4771212547196624

> <Compound>
Diphenhydramine

> <standard_units>
uM

> hash
9891127471022406753

$$$$
14
XXILIB    08252103503D 0   0.00000     0.00000

 19 20  0     1  0            999 V2000
    1.4248    0.0000   -0.0000 O   0  0  0  0  0  2           0  0  0
    4.3056    2.0933    1.2086 N   0  0  1  0  0  3           0  0  0
   -0.4830   -0.0000    1.4267 C   0  0  0  0  0  4           0  0  0
   -0.5433   -1.1682   -0.7916 C   0  0  0  0  0  4           0  0  0
   -1.6927    0.6280    1.7584 C   0  0  0  0  0  4           0  0  0
    0.2663   -0.5995    2.4512 C   0  0  0  0  0  4           0  0  0
   -0.7731   -2.3989   -0.1589 C   0  0  0  0  0  4           0  0  0
   -0.8057   -1.0597   -2.1664 C   0  0  0  0  0  4           0  0  0
   -2.1454    0.6486    3.0792 C   0  0  0  0  0  4           0  0  0
   -0.1879   -0.5786    3.7712 C   0  0  0  0  0  4           0  0  0
   -1.2605   -3.4904   -0.8807 C   0  0  0  0  0  4           0  0  0
   -1.2937   -2.1517   -2.8865 C   0  0  0  0  0  4           0  0  0
   -1.3937    0.0444    4.0846 C   0  0  0  0  0  4           0  0  0
   -1.5217   -3.3660   -2.2435 C   0  0  0  0  0  4           0  0  0
    0.0000    0.0000    0.0000 C   0  0  2  0  0  4           0  0  0
    2.0031    1.1282    0.6513 C   0  0  0  0  0  4           0  0  0
    3.5206    1.0210    0.5895 C   0  0  0  0  0  4           0  0  0
    5.7371    1.8249    1.0536 C   0  0  0  0  0  4           0  0  0
    3.9789    3.4020    0.6368 C   0  0  0  0  0  4           0  0  0
  1 15  1  0     0  0
  1 16  1  0     0  0
  2 17  1  0     0  0
  2 18  1  0     0  0
  2 19  1  0     0  0
  3  5  2  0     0  0
  3  6  1  0     0  0
  3 15  1  0     0  0
  4  7  2  0     0  0
  4  8  1  0     0  0
  4 15  1  0     0  0
  5  9  1  0     0  0
  6 10  2  0     0  0
  7 11  1  0     0  0
  8 12  2  0     0  0
  9 13  2  0     0  0
 10 13  1  0     0  0
 11 14  2  0     0  0
 12 14  1  0     0  0
 16 17  1  0     0  0
M  END
> <standard_type>
pIC50

> <# Confs.>
25

> <canonical_smiles>
CN(CCOC(C1=CC=CC=C1)C2=CC=CC=C2)C

> <standard_relation>
=

> <Publication_ID>
nan

> <predicted_activity_value>
nan

> <actual_activity_value>
-1.4771212547196624

> <Compound>
Diphenhydramine

> <standard_units>
uM

> hash
9891127471022406753

$$$$
14
XXILIB    08252103503D 0   0.00000     0.00000

 19 20  0     1  0            999 V2000
    1.4248    0.0000   -0.0000 O   0  0  0  0  0  2           0  0  0
    4.1473    1.1240   -0.4767 N   0  0  1  0  0  3           0  0  0
   -0.4830    0.0000    1.4267 C   0  0  0  0  0  4           0  0  0
   -0.5433   -1.1682   -0.7916 C   0  0  0  0  0  4           0  0  0
   -1.6927    0.6280    1.7584 C   0  0  0  0  0  4           0  0  0
    0.2663   -0.5995    2.4512 C   0  0  0  0  0  4           0  0  0
   -1.7882   -1.0654   -1.4301 C   0  0  0  0  0  4           0  0  0
    0.1633   -2.3774   -0.8870 C   0  0  0  0  0  4           0  0  0
   -2.1454    0.6486    3.0792 C   0  0  0  0  0  4           0  0  0
   -0.1879   -0.5786    3.7712 C   0  0  0  0  0  4           0  0  0
   -2.3090   -2.1411   -2.1521 C   0  0  0  0  0  4           0  0  0
   -0.3584   -3.4518   -1.6098 C   0  0  0  0  0  4           0  0  0
   -1.3937    0.0444    4.0846 C   0  0  0  0  0  4           0  0  0
   -1.5935   -3.3331   -2.2428 C   0  0  0  0  0  4           0  0  0
    0.0000    0.0000    0.0000 C   0  0  2  0  0  4           0  0  0
    2.0031    0.0000   -1.3027 C   0  0  0  0  0  4           0  0  0
    3.5206    0.0000   -1.1789 C   0  0  0  0  0  4           0  0  0
    5.6022    0.9574   -0.4545 C   0  0  0  0  0  4           0  0  0
    3.8018    2.4073   -1.0932 C   0  0  0  0  0  4           0  0  0
  1 15  1  0     0  0
  1 16  1  0     0  0
  2 17  1  0     0  0
  2 18  1  0     0  0
  2 19  1  0     0  0
  3  5  2  0     0  0
  3  6  1  0     0  0
  3 15  1  0     0  0
  4  7  2  0     0  0
  4  8  1  0     0  0
  4 15  1  0     0  0
  5  9  1  0     0  0
  6 10  2  0     0  0
  7 11  1  0     0  0
  8 12  2  0     0  0
  9 13  2  0     0  0
 10 13  1  0     0  0
 11 14  2  0     0  0
 12 14  1  0     0  0
 16 17  1  0     0  0
M  END
> <standard_type>
pIC50

> <# Confs.>
25

> <canonical_smiles>
CN(CCOC(C1=CC=CC=C1)C2=CC=CC=C2)C

> <standard_relation>
=

> <Publication_ID>
nan

> <predicted_activity_value>
nan

> <actual_activity_value>
-1.4771212547196624

> <Compound>
Diphenhydramine

> <standard_units>
uM

> hash
9891127471022406753

$$$$
14
XXILIB    08252103503D 0   0.00000     0.00000

 19 20  0     1  0            999 V2000
    1.4248    0.0000   -0.0000 O   0  0  0  0  0  2           0  0  0
    4.1473    0.9748   -0.7351 N   0  0  1  0  0  3           0  0  0
   -0.4830    0.0000    1.4267 C   0  0  0  0  0  4           0  0  0
   -0.5433   -1.1682   -0.7916 C   0  0  0  0  0  4           0  0  0
   -1.6927    0.6280    1.7584 C   0  0  0  0  0  4           0  0  0
    0.2663   -0.5995    2.4512 C   0  0  0  0  0  4           0  0  0
   -1.7882   -1.0654   -1.4301 C   0  0  0  0  0  4           0  0  0
    0.1633   -2.3774   -0.8870 C   0  0  0  0  0  4           0  0  0
   -2.1454    0.6486    3.0792 C   0  0  0  0  0  4           0  0  0
   -0.1879   -0.5786    3.7712 C   0  0  0  0  0  4           0  0  0
   -2.3090   -2.1411   -2.1521 C   0  0  0  0  0  4           0  0  0
   -0.3584   -3.4518   -1.6098 C   0  0  0  0  0  4           0  0  0
   -1.3937    0.0444    4.0846 C   0  0  0  0  0  4           0  0  0
   -1.5935   -3.3331   -2.2428 C   0  0  0  0  0  4           0  0  0
    0.0000    0.0000    0.0000 C   0  0  2  0  0  4           0  0  0
    2.0031    1.1282    0.6513 C   0  0  0  0  0  4           0  0  0
    3.5206    1.0210    0.5895 C   0  0  0  0  0  4           0  0  0
    3.8273    2.1900   -1.4875 C   0  0  0  0  0  4           0  0  0
    5.6005    0.8151   -0.6408 C   0  0  0  0  0  4           0  0  0
  1 15  1  0     0  0
  1 16  1  0     0  0
  2 17  1  0     0  0
  2 18  1  0     0  0
  2 19  1  0     0  0
  3  5  2  0     0  0
  3  6  1  0     0  0
  3 15  1  0     0  0
  4  7  2  0     0  0
  4  8  1  0     0  0
  4 15  1  0     0  0
  5  9  1  0     0  0
  6 10  2  0     0  0
  7 11  1  0     0  0
  8 12  2  0     0  0
  9 13  2  0     0  0
 10 13  1  0     0  0
 11 14  2  0     0  0
 12 14  1  0     0  0
 16 17  1  0     0  0
M  END
> <standard_type>
pIC50

> <# Confs.>
25

> <canonical_smiles>
CN(CCOC(C1=CC=CC=C1)C2=CC=CC=C2)C

> <standard_relation>
=

> <Publication_ID>
nan

> <predicted_activity_value>
nan

> <actual_activity_value>
-1.4771212547196624

> <Compound>
Diphenhydramine

> <standard_units>
uM

> hash
9891127471022406753

$$$$
14
XXILIB    08252103503D 0   0.00000     0.00000

 19 20  0     1  0            999 V2000
    1.4248   -0.0000   -0.0000 O   0  0  0  0  0  2           0  0  0
    4.3056    0.0000   -2.4171 N   0  0  1  0  0  3           0  0  0
   -0.4830   -0.0000    1.4267 C   0  0  0  0  0  4           0  0  0
   -0.5433   -1.1682   -0.7916 C   0  0  0  0  0  4           0  0  0
   -1.7156   -0.5862    1.7507 C   0  0  0  0  0  4           0  0  0
    0.2663    0.5995    2.4512 C   0  0  0  0  0  4           0  0  0
   -1.7882   -1.0654   -1.4301 C   0  0  0  0  0  4           0  0  0
    0.1633   -2.3774   -0.8870 C   0  0  0  0  0  4           0  0  0
   -2.1827   -0.5804    3.0665 C   0  0  0  0  0  4           0  0  0
   -0.2017    0.6038    3.7665 C   0  0  0  0  0  4           0  0  0
   -2.3090   -2.1411   -2.1521 C   0  0  0  0  0  4           0  0  0
   -0.3584   -3.4518   -1.6098 C   0  0  0  0  0  4           0  0  0
   -1.4252    0.0133    4.0739 C   0  0  0  0  0  4           0  0  0
   -1.5935   -3.3331   -2.2428 C   0  0  0  0  0  4           0  0  0
    0.0000    0.0000    0.0000 C   0  0  2  0  0  4           0  0  0
    2.0031    0.0000   -1.3027 C   0  0  0  0  0  4           0  0  0
    3.5206   -0.0000   -1.1789 C   0  0  0  0  0  4           0  0  0
    5.7371   -0.0000   -2.1073 C   0  0  0  0  0  4           0  0  0
    3.9789   -1.1495   -3.2647 C   0  0  0  0  0  4           0  0  0
  1 15  1  0     0  0
  1 16  1  0     0  0
  2 17  1  0     0  0
  2 18  1  0     0  0
  2 19  1  0     0  0
  3  5  2  0     0  0
  3  6  1  0     0  0
  3 15  1  0     0  0
  4  7  2  0     0  0
  4  8  1  0     0  0
  4 15  1  0     0  0
  5  9  1  0     0  0
  6 10  2  0     0  0
  7 11  1  0     0  0
  8 12  2  0     0  0
  9 13  2  0     0  0
 10 13  1  0     0  0
 11 14  2  0     0  0
 12 14  1  0     0  0
 16 17  1  0     0  0
M  END
> <standard_type>
pIC50

> <# Confs.>
25

> <canonical_smiles>
CN(CCOC(C1=CC=CC=C1)C2=CC=CC=C2)C

> <standard_relation>
=

> <Publication_ID>
nan

> <predicted_activity_value>
nan

> <actual_activity_value>
-1.4771212547196624

> <Compound>
Diphenhydramine

> <standard_units>
uM

> hash
9891127471022406753

$$$$
14
XXILIB    08252103503D 0   0.00000     0.00000

 19 20  0     1  0            999 V2000
    1.4248    0.0000   -0.0000 O   0  0  0  0  0  2           0  0  0
    4.3056    2.0933    1.2086 N   0  0  1  0  0  3           0  0  0
   -0.4830    0.0000    1.4267 C   0  0  0  0  0  4           0  0  0
   -0.5433   -1.1682   -0.7916 C   0  0  0  0  0  4           0  0  0
   -1.6927    0.6280    1.7584 C   0  0  0  0  0  4           0  0  0
    0.2663   -0.5995    2.4512 C   0  0  0  0  0  4           0  0  0
   -1.7657   -1.7537   -0.4298 C   0  0  0  0  0  4           0  0  0
    0.1633   -1.7048   -1.8794 C   0  0  0  0  0  4           0  0  0
   -2.1454    0.6486    3.0792 C   0  0  0  0  0  4           0  0  0
   -0.1879   -0.5786    3.7712 C   0  0  0  0  0  4           0  0  0
   -2.2722   -2.8423   -1.1426 C   0  0  0  0  0  4           0  0  0
   -0.3448   -2.7928   -2.5916 C   0  0  0  0  0  4           0  0  0
   -1.3937    0.0444    4.0846 C   0  0  0  0  0  4           0  0  0
   -1.5625   -3.3605   -2.2237 C   0  0  0  0  0  4           0  0  0
    0.0000    0.0000    0.0000 C   0  0  2  0  0  4           0  0  0
    2.0031    1.1282    0.6513 C   0  0  0  0  0  4           0  0  0
    3.5206    1.0210    0.5895 C   0  0  0  0  0  4           0  0  0
    5.7371    1.8249    1.0536 C   0  0  0  0  0  4           0  0  0
    3.9789    3.4020    0.6368 C   0  0  0  0  0  4           0  0  0
  1 15  1  0     0  0
  1 16  1  0     0  0
  2 17  1  0     0  0
  2 18  1  0     0  0
  2 19  1  0     0  0
  3  5  2  0     0  0
  3  6  1  0     0  0
  3 15  1  0     0  0
  4  7  2  0     0  0
  4  8  1  0     0  0
  4 15  1  0     0  0
  5  9  1  0     0  0
  6 10  2  0     0  0
  7 11  1  0     0  0
  8 12  2  0     0  0
  9 13  2  0     0  0
 10 13  1  0     0  0
 11 14  2  0     0  0
 12 14  1  0     0  0
 16 17  1  0     0  0
M  END
> <standard_type>
pIC50

> <# Confs.>
25

> <canonical_smiles>
CN(CCOC(C1=CC=CC=C1)C2=CC=CC=C2)C

> <standard_relation>
=

> <Publication_ID>
nan

> <predicted_activity_value>
nan

> <actual_activity_value>
-1.4771212547196624

> <Compound>
Diphenhydramine

> <standard_units>
uM

> hash
9891127471022406753

$$$$
14
XXILIB    08252103503D 0   0.00000     0.00000

 19 20  0     1  0            999 V2000
    1.4248   -0.0000   -0.0000 O   0  0  0  0  0  2           0  0  0
    4.1473   -1.1240   -0.4767 N   0  0  1  0  0  3           0  0  0
   -0.4830   -0.0000    1.4267 C   0  0  0  0  0  4           0  0  0
   -0.5433   -1.1682   -0.7916 C   0  0  0  0  0  4           0  0  0
   -1.6927    0.6280    1.7584 C   0  0  0  0  0  4           0  0  0
    0.2663   -0.5995    2.4512 C   0  0  0  0  0  4           0  0  0
   -0.7731   -2.3989   -0.1589 C   0  0  0  0  0  4           0  0  0
   -0.8057   -1.0597   -2.1664 C   0  0  0  0  0  4           0  0  0
   -2.1454    0.6486    3.0792 C   0  0  0  0  0  4           0  0  0
   -0.1879   -0.5786    3.7712 C   0  0  0  0  0  4           0  0  0
   -1.2605   -3.4904   -0.8807 C   0  0  0  0  0  4           0  0  0
   -1.2937   -2.1517   -2.8865 C   0  0  0  0  0  4           0  0  0
   -1.3937    0.0444    4.0846 C   0  0  0  0  0  4           0  0  0
   -1.5217   -3.3660   -2.2435 C   0  0  0  0  0  4           0  0  0
    0.0000    0.0000    0.0000 C   0  0  2  0  0  4           0  0  0
    2.0031    0.0000   -1.3027 C   0  0  0  0  0  4           0  0  0
    3.5206    0.0000   -1.1789 C   0  0  0  0  0  4           0  0  0
    3.8273   -2.3832   -1.1529 C   0  0  0  0  0  4           0  0  0
    5.6005   -0.9625   -0.3855 C   0  0  0  0  0  4           0  0  0
  1 15  1  0     0  0
  1 16  1  0     0  0
  2 17  1  0     0  0
  2 18  1  0     0  0
  2 19  1  0     0  0
  3  5  2  0     0  0
  3  6  1  0     0  0
  3 15  1  0     0  0
  4  7  2  0     0  0
  4  8  1  0     0  0
  4 15  1  0     0  0
  5  9  1  0     0  0
  6 10  2  0     0  0
  7 11  1  0     0  0
  8 12  2  0     0  0
  9 13  2  0     0  0
 10 13  1  0     0  0
 11 14  2  0     0  0
 12 14  1  0     0  0
 16 17  1  0     0  0
M  END
> <standard_type>
pIC50

> <# Confs.>
25

> <canonical_smiles>
CN(CCOC(C1=CC=CC=C1)C2=CC=CC=C2)C

> <standard_relation>
=

> <Publication_ID>
nan

> <predicted_activity_value>
nan

> <actual_activity_value>
-1.4771212547196624

> <Compound>
Diphenhydramine

> <standard_units>
uM

> hash
9891127471022406753

$$$$
14
XXILIB    08252103503D 0   0.00000     0.00000

 19 20  0     1  0            999 V2000
    1.4248    0.0000   -0.0000 O   0  0  0  0  0  2           0  0  0
    4.1473    1.1240   -0.4767 N   0  0  1  0  0  3           0  0  0
   -0.4830   -0.0000    1.4267 C   0  0  0  0  0  4           0  0  0
   -0.5433   -1.1682   -0.7916 C   0  0  0  0  0  4           0  0  0
   -1.6927    0.6280    1.7584 C   0  0  0  0  0  4           0  0  0
    0.2663   -0.5995    2.4512 C   0  0  0  0  0  4           0  0  0
   -0.7731   -2.3989   -0.1589 C   0  0  0  0  0  4           0  0  0
   -0.8057   -1.0597   -2.1664 C   0  0  0  0  0  4           0  0  0
   -2.1454    0.6486    3.0792 C   0  0  0  0  0  4           0  0  0
   -0.1879   -0.5786    3.7712 C   0  0  0  0  0  4           0  0  0
   -1.2605   -3.4904   -0.8807 C   0  0  0  0  0  4           0  0  0
   -1.2937   -2.1517   -2.8865 C   0  0  0  0  0  4           0  0  0
   -1.3937    0.0444    4.0846 C   0  0  0  0  0  4           0  0  0
   -1.5217   -3.3660   -2.2435 C   0  0  0  0  0  4           0  0  0
    0.0000    0.0000    0.0000 C   0  0  2  0  0  4           0  0  0
    2.0031    0.0000   -1.3027 C   0  0  0  0  0  4           0  0  0
    3.5206    0.0000   -1.1789 C   0  0  0  0  0  4           0  0  0
    5.6022    0.9574   -0.4545 C   0  0  0  0  0  4           0  0  0
    3.8018    2.4073   -1.0932 C   0  0  0  0  0  4           0  0  0
  1 15  1  0     0  0
  1 16  1  0     0  0
  2 17  1  0     0  0
  2 18  1  0     0  0
  2 19  1  0     0  0
  3  5  2  0     0  0
  3  6  1  0     0  0
  3 15  1  0     0  0
  4  7  2  0     0  0
  4  8  1  0     0  0
  4 15  1  0     0  0
  5  9  1  0     0  0
  6 10  2  0     0  0
  7 11  1  0     0  0
  8 12  2  0     0  0
  9 13  2  0     0  0
 10 13  1  0     0  0
 11 14  2  0     0  0
 12 14  1  0     0  0
 16 17  1  0     0  0
M  END
> <standard_type>
pIC50

> <# Confs.>
25

> <canonical_smiles>
CN(CCOC(C1=CC=CC=C1)C2=CC=CC=C2)C

> <standard_relation>
=

> <Publication_ID>
nan

> <predicted_activity_value>
nan

> <actual_activity_value>
-1.4771212547196624

> <Compound>
Diphenhydramine

> <standard_units>
uM

> hash
9891127471022406753

$$$$
14
XXILIB    08252103503D 0   0.00000     0.00000

 19 20  0     1  0            999 V2000
    1.4248   -0.0000    0.0000 O   0  0  0  0  0  2           0  0  0
    4.1473   -0.1492    1.2118 N   0  0  1  0  0  3           0  0  0
   -0.4830    0.0000    1.4267 C   0  0  0  0  0  4           0  0  0
   -0.5433   -1.1682   -0.7916 C   0  0  0  0  0  4           0  0  0
   -0.6853    1.2142    2.0995 C   0  0  0  0  0  4           0  0  0
   -0.7171   -1.1989    2.1183 C   0  0  0  0  0  4           0  0  0
   -1.7882   -1.0654   -1.4301 C   0  0  0  0  0  4           0  0  0
    0.1633   -2.3774   -0.8870 C   0  0  0  0  0  4           0  0  0
   -1.1185    1.2291    3.4268 C   0  0  0  0  0  4           0  0  0
   -1.1510   -1.1824    3.4452 C   0  0  0  0  0  4           0  0  0
   -2.3090   -2.1411   -2.1521 C   0  0  0  0  0  4           0  0  0
   -0.3584   -3.4518   -1.6098 C   0  0  0  0  0  4           0  0  0
   -1.3524    0.0311    4.0985 C   0  0  0  0  0  4           0  0  0
   -1.5935   -3.3331   -2.2428 C   0  0  0  0  0  4           0  0  0
    0.0000    0.0000    0.0000 C   0  0  2  0  0  4           0  0  0
    2.0031    1.1282    0.6513 C   0  0  0  0  0  4           0  0  0
    3.5206    1.0210    0.5895 C   0  0  0  0  0  4           0  0  0
    5.6022   -0.0851    1.0564 C   0  0  0  0  0  4           0  0  0
    3.8018   -0.2569    2.6314 C   0  0  0  0  0  4           0  0  0
  1 15  1  0     0  0
  1 16  1  0     0  0
  2 17  1  0     0  0
  2 18  1  0     0  0
  2 19  1  0     0  0
  3  5  2  0     0  0
  3  6  1  0     0  0
  3 15  1  0     0  0
  4  7  2  0     0  0
  4  8  1  0     0  0
  4 15  1  0     0  0
  5  9  1  0     0  0
  6 10  2  0     0  0
  7 11  1  0     0  0
  8 12  2  0     0  0
  9 13  2  0     0  0
 10 13  1  0     0  0
 11 14  2  0     0  0
 12 14  1  0     0  0
 16 17  1  0     0  0
M  END
> <standard_type>
pIC50

> <# Confs.>
25

> <canonical_smiles>
CN(CCOC(C1=CC=CC=C1)C2=CC=CC=C2)C

> <standard_relation>
=

> <Publication_ID>
nan

> <predicted_activity_value>
nan

> <actual_activity_value>
-1.4771212547196624

> <Compound>
Diphenhydramine

> <standard_units>
uM

> hash
9891127471022406753

$$$$
14
XXILIB    08252103503D 0   0.00000     0.00000

 19 20  0     1  0            999 V2000
    1.4248    0.0000   -0.0000 O   0  0  0  0  0  2           0  0  0
    4.1473    0.9748   -0.7351 N   0  0  1  0  0  3           0  0  0
   -0.4830    0.0000    1.4267 C   0  0  0  0  0  4           0  0  0
   -0.5433   -1.1682   -0.7916 C   0  0  0  0  0  4           0  0  0
   -0.6853    1.2142    2.0995 C   0  0  0  0  0  4           0  0  0
   -0.7171   -1.1989    2.1183 C   0  0  0  0  0  4           0  0  0
   -1.7882   -1.0654   -1.4301 C   0  0  0  0  0  4           0  0  0
    0.1633   -2.3774   -0.8870 C   0  0  0  0  0  4           0  0  0
   -1.1185    1.2291    3.4268 C   0  0  0  0  0  4           0  0  0
   -1.1510   -1.1824    3.4452 C   0  0  0  0  0  4           0  0  0
   -2.3090   -2.1411   -2.1521 C   0  0  0  0  0  4           0  0  0
   -0.3584   -3.4518   -1.6098 C   0  0  0  0  0  4           0  0  0
   -1.3524    0.0311    4.0985 C   0  0  0  0  0  4           0  0  0
   -1.5935   -3.3331   -2.2428 C   0  0  0  0  0  4           0  0  0
    0.0000    0.0000    0.0000 C   0  0  2  0  0  4           0  0  0
    2.0031    1.1282    0.6513 C   0  0  0  0  0  4           0  0  0
    3.5206    1.0210    0.5895 C   0  0  0  0  0  4           0  0  0
    3.8273    2.1900   -1.4875 C   0  0  0  0  0  4           0  0  0
    5.6005    0.8151   -0.6408 C   0  0  0  0  0  4           0  0  0
  1 15  1  0     0  0
  1 16  1  0     0  0
  2 17  1  0     0  0
  2 18  1  0     0  0
  2 19  1  0     0  0
  3  5  2  0     0  0
  3  6  1  0     0  0
  3 15  1  0     0  0
  4  7  2  0     0  0
  4  8  1  0     0  0
  4 15  1  0     0  0
  5  9  1  0     0  0
  6 10  2  0     0  0
  7 11  1  0     0  0
  8 12  2  0     0  0
  9 13  2  0     0  0
 10 13  1  0     0  0
 11 14  2  0     0  0
 12 14  1  0     0  0
 16 17  1  0     0  0
M  END
> <standard_type>
pIC50

> <# Confs.>
25

> <canonical_smiles>
CN(CCOC(C1=CC=CC=C1)C2=CC=CC=C2)C

> <standard_relation>
=

> <Publication_ID>
nan

> <predicted_activity_value>
nan

> <actual_activity_value>
-1.4771212547196624

> <Compound>
Diphenhydramine

> <standard_units>
uM

> hash
9891127471022406753

$$$$
14
XXILIB    08252103503D 0   0.00000     0.00000

 19 20  0     1  0            999 V2000
    1.4248    0.0000   -0.0000 O   0  0  0  0  0  2           0  0  0
    4.1473    1.1240   -0.4767 N   0  0  1  0  0  3           0  0  0
   -0.4830    0.0000    1.4267 C   0  0  0  0  0  4           0  0  0
   -0.5433   -1.1682   -0.7916 C   0  0  0  0  0  4           0  0  0
   -0.6853    1.2142    2.0995 C   0  0  0  0  0  4           0  0  0
   -0.7171   -1.1989    2.1183 C   0  0  0  0  0  4           0  0  0
   -1.7882   -1.0654   -1.4301 C   0  0  0  0  0  4           0  0  0
    0.1633   -2.3774   -0.8870 C   0  0  0  0  0  4           0  0  0
   -1.1185    1.2291    3.4268 C   0  0  0  0  0  4           0  0  0
   -1.1510   -1.1824    3.4452 C   0  0  0  0  0  4           0  0  0
   -2.3090   -2.1411   -2.1521 C   0  0  0  0  0  4           0  0  0
   -0.3584   -3.4518   -1.6098 C   0  0  0  0  0  4           0  0  0
   -1.3524    0.0311    4.0985 C   0  0  0  0  0  4           0  0  0
   -1.5935   -3.3331   -2.2428 C   0  0  0  0  0  4           0  0  0
    0.0000    0.0000    0.0000 C   0  0  2  0  0  4           0  0  0
    2.0031    0.0000   -1.3027 C   0  0  0  0  0  4           0  0  0
    3.5206    0.0000   -1.1789 C   0  0  0  0  0  4           0  0  0
    5.6022    0.9574   -0.4545 C   0  0  0  0  0  4           0  0  0
    3.8018    2.4073   -1.0932 C   0  0  0  0  0  4           0  0  0
  1 15  1  0     0  0
  1 16  1  0     0  0
  2 17  1  0     0  0
  2 18  1  0     0  0
  2 19  1  0     0  0
  3  5  2  0     0  0
  3  6  1  0     0  0
  3 15  1  0     0  0
  4  7  2  0     0  0
  4  8  1  0     0  0
  4 15  1  0     0  0
  5  9  1  0     0  0
  6 10  2  0     0  0
  7 11  1  0     0  0
  8 12  2  0     0  0
  9 13  2  0     0  0
 10 13  1  0     0  0
 11 14  2  0     0  0
 12 14  1  0     0  0
 16 17  1  0     0  0
M  END
> <standard_type>
pIC50

> <# Confs.>
25

> <canonical_smiles>
CN(CCOC(C1=CC=CC=C1)C2=CC=CC=C2)C

> <standard_relation>
=

> <Publication_ID>
nan

> <predicted_activity_value>
nan

> <actual_activity_value>
-1.4771212547196624

> <Compound>
Diphenhydramine

> <standard_units>
uM

> hash
9891127471022406753

$$$$
14
XXILIB    08252103503D 0   0.00000     0.00000

 19 20  0     1  0            999 V2000
    1.4248   -0.0000   -0.0000 O   0  0  0  0  0  2           0  0  0
    2.0405    1.4308   -3.4227 N   0  0  1  0  0  3           0  0  0
   -0.4830    0.0000    1.4267 C   0  0  0  0  0  4           0  0  0
   -0.5433   -1.1682   -0.7916 C   0  0  0  0  0  4           0  0  0
   -1.6927    0.6280    1.7584 C   0  0  0  0  0  4           0  0  0
    0.2663   -0.5995    2.4512 C   0  0  0  0  0  4           0  0  0
   -1.7882   -1.0654   -1.4301 C   0  0  0  0  0  4           0  0  0
    0.1633   -2.3774   -0.8870 C   0  0  0  0  0  4           0  0  0
   -2.1454    0.6486    3.0792 C   0  0  0  0  0  4           0  0  0
   -0.1879   -0.5786    3.7712 C   0  0  0  0  0  4           0  0  0
   -2.3090   -2.1411   -2.1521 C   0  0  0  0  0  4           0  0  0
   -0.3584   -3.4518   -1.6098 C   0  0  0  0  0  4           0  0  0
   -1.3937    0.0444    4.0846 C   0  0  0  0  0  4           0  0  0
   -1.5935   -3.3331   -2.2428 C   0  0  0  0  0  4           0  0  0
    0.0000    0.0000    0.0000 C   0  0  2  0  0  4           0  0  0
    2.0031    0.0000   -1.3027 C   0  0  0  0  0  4           0  0  0
    1.5503    1.2446   -2.0537 C   0  0  0  0  0  4           0  0  0
    1.5060    2.6728   -3.9857 C   0  0  0  0  0  4           0  0  0
    3.5045    1.4492   -3.4753 C   0  0  0  0  0  4           0  0  0
  1 15  1  0     0  0
  1 16  1  0     0  0
  2 17  1  0     0  0
  2 18  1  0     0  0
  2 19  1  0     0  0
  3  5  2  0     0  0
  3  6  1  0     0  0
  3 15  1  0     0  0
  4  7  2  0     0  0
  4  8  1  0     0  0
  4 15  1  0     0  0
  5  9  1  0     0  0
  6 10  2  0     0  0
  7 11  1  0     0  0
  8 12  2  0     0  0
  9 13  2  0     0  0
 10 13  1  0     0  0
 11 14  2  0     0  0
 12 14  1  0     0  0
 16 17  1  0     0  0
M  END
> <standard_type>
pIC50

> <# Confs.>
25

> <canonical_smiles>
CN(CCOC(C1=CC=CC=C1)C2=CC=CC=C2)C

> <standard_relation>
=

> <Publication_ID>
nan

> <predicted_activity_value>
nan

> <actual_activity_value>
-1.4771212547196624

> <Compound>
Diphenhydramine

> <standard_units>
uM

> hash
9891127471022406753

$$$$
14
XXILIB    08252103503D 0   0.00000     0.00000

 19 20  0     1  0            999 V2000
    1.4248    0.0000   -0.0000 O   0  0  0  0  0  2           0  0  0
    4.1473    1.1240   -0.4767 N   0  0  1  0  0  3           0  0  0
   -0.4830    0.0000    1.4267 C   0  0  0  0  0  4           0  0  0
   -0.5433   -1.1682   -0.7916 C   0  0  0  0  0  4           0  0  0
   -1.6927    0.6280    1.7584 C   0  0  0  0  0  4           0  0  0
    0.2663   -0.5995    2.4512 C   0  0  0  0  0  4           0  0  0
   -1.7882   -1.0654   -1.4301 C   0  0  0  0  0  4           0  0  0
    0.1633   -2.3774   -0.8870 C   0  0  0  0  0  4           0  0  0
   -2.1454    0.6486    3.0792 C   0  0  0  0  0  4           0  0  0
   -0.1879   -0.5786    3.7712 C   0  0  0  0  0  4           0  0  0
   -2.3090   -2.1411   -2.1521 C   0  0  0  0  0  4           0  0  0
   -0.3584   -3.4518   -1.6098 C   0  0  0  0  0  4           0  0  0
   -1.3937    0.0444    4.0846 C   0  0  0  0  0  4           0  0  0
   -1.5935   -3.3331   -2.2428 C   0  0  0  0  0  4           0  0  0
    0.0000    0.0000    0.0000 C   0  0  2  0  0  4           0  0  0
    2.0031    0.0000   -1.3027 C   0  0  0  0  0  4           0  0  0
    3.5206    0.0000   -1.1789 C   0  0  0  0  0  4           0  0  0
    3.8273    2.3832   -1.1529 C   0  0  0  0  0  4           0  0  0
    3.7251    1.1894    0.9247 C   0  0  0  0  0  4           0  0  0
  1 15  1  0     0  0
  1 16  1  0     0  0
  2 17  1  0     0  0
  2 18  1  0     0  0
  2 19  1  0     0  0
  3  5  2  0     0  0
  3  6  1  0     0  0
  3 15  1  0     0  0
  4  7  2  0     0  0
  4  8  1  0     0  0
  4 15  1  0     0  0
  5  9  1  0     0  0
  6 10  2  0     0  0
  7 11  1  0     0  0
  8 12  2  0     0  0
  9 13  2  0     0  0
 10 13  1  0     0  0
 11 14  2  0     0  0
 12 14  1  0     0  0
 16 17  1  0     0  0
M  END
> <standard_type>
pIC50

> <# Confs.>
25

> <canonical_smiles>
CN(CCOC(C1=CC=CC=C1)C2=CC=CC=C2)C

> <standard_relation>
=

> <Publication_ID>
nan

> <predicted_activity_value>
nan

> <actual_activity_value>
-1.4771212547196624

> <Compound>
Diphenhydramine

> <standard_units>
uM

> hash
9891127471022406753

$$$$
14
XXILIB    08252103503D 0   0.00000     0.00000

 19 20  0     1  0            999 V2000
    1.4248    0.0000   -0.0000 O   0  0  0  0  0  2           0  0  0
    4.1473    0.9748   -0.7351 N   0  0  1  0  0  3           0  0  0
   -0.4830    0.0000    1.4267 C   0  0  0  0  0  4           0  0  0
   -0.5433   -1.1682   -0.7916 C   0  0  0  0  0  4           0  0  0
   -1.6927    0.6280    1.7584 C   0  0  0  0  0  4           0  0  0
    0.2663   -0.5995    2.4512 C   0  0  0  0  0  4           0  0  0
   -1.7882   -1.0654   -1.4301 C   0  0  0  0  0  4           0  0  0
    0.1633   -2.3774   -0.8870 C   0  0  0  0  0  4           0  0  0
   -2.1454    0.6486    3.0792 C   0  0  0  0  0  4           0  0  0
   -0.1879   -0.5786    3.7712 C   0  0  0  0  0  4           0  0  0
   -2.3090   -2.1411   -2.1521 C   0  0  0  0  0  4           0  0  0
   -0.3584   -3.4518   -1.6098 C   0  0  0  0  0  4           0  0  0
   -1.3937    0.0444    4.0846 C   0  0  0  0  0  4           0  0  0
   -1.5935   -3.3331   -2.2428 C   0  0  0  0  0  4           0  0  0
    0.0000    0.0000    0.0000 C   0  0  2  0  0  4           0  0  0
    2.0031    1.1282    0.6513 C   0  0  0  0  0  4           0  0  0
    3.5206    1.0210    0.5895 C   0  0  0  0  0  4           0  0  0
    3.6596   -0.1855   -1.4841 C   0  0  0  0  0  4           0  0  0
    3.8950    2.2012   -1.4959 C   0  0  0  0  0  4           0  0  0
  1 15  1  0     0  0
  1 16  1  0     0  0
  2 17  1  0     0  0
  2 18  1  0     0  0
  2 19  1  0     0  0
  3  5  2  0     0  0
  3  6  1  0     0  0
  3 15  1  0     0  0
  4  7  2  0     0  0
  4  8  1  0     0  0
  4 15  1  0     0  0
  5  9  1  0     0  0
  6 10  2  0     0  0
  7 11  1  0     0  0
  8 12  2  0     0  0
  9 13  2  0     0  0
 10 13  1  0     0  0
 11 14  2  0     0  0
 12 14  1  0     0  0
 16 17  1  0     0  0
M  END
> <standard_type>
pIC50

> <# Confs.>
25

> <canonical_smiles>
CN(CCOC(C1=CC=CC=C1)C2=CC=CC=C2)C

> <standard_relation>
=

> <Publication_ID>
nan

> <predicted_activity_value>
nan

> <actual_activity_value>
-1.4771212547196624

> <Compound>
Diphenhydramine

> <standard_units>
uM

> hash
9891127471022406753

$$$$
14
XXILIB    08252103503D 0   0.00000     0.00000

 19 20  0     1  0            999 V2000
    1.4248    0.0000   -0.0000 O   0  0  0  0  0  2           0  0  0
    1.8908    2.5494   -1.4785 N   0  0  1  0  0  3           0  0  0
   -0.4830    0.0000    1.4267 C   0  0  0  0  0  4           0  0  0
   -0.5433   -1.1682   -0.7916 C   0  0  0  0  0  4           0  0  0
   -1.6927    0.6280    1.7584 C   0  0  0  0  0  4           0  0  0
    0.2663   -0.5995    2.4512 C   0  0  0  0  0  4           0  0  0
   -1.7882   -1.0654   -1.4301 C   0  0  0  0  0  4           0  0  0
    0.1633   -2.3774   -0.8870 C   0  0  0  0  0  4           0  0  0
   -2.1454    0.6486    3.0792 C   0  0  0  0  0  4           0  0  0
   -0.1879   -0.5786    3.7712 C   0  0  0  0  0  4           0  0  0
   -2.3090   -2.1411   -2.1521 C   0  0  0  0  0  4           0  0  0
   -0.3584   -3.4518   -1.6098 C   0  0  0  0  0  4           0  0  0
   -1.3937    0.0444    4.0846 C   0  0  0  0  0  4           0  0  0
   -1.5935   -3.3331   -2.2428 C   0  0  0  0  0  4           0  0  0
    0.0000    0.0000    0.0000 C   0  0  2  0  0  4           0  0  0
    2.0031    0.0000   -1.3027 C   0  0  0  0  0  4           0  0  0
    1.5503    1.2446   -2.0537 C   0  0  0  0  0  4           0  0  0
    3.3446    2.6881   -1.3671 C   0  0  0  0  0  4           0  0  0
    1.3445    3.6510   -2.2750 C   0  0  0  0  0  4           0  0  0
  1 15  1  0     0  0
  1 16  1  0     0  0
  2 17  1  0     0  0
  2 18  1  0     0  0
  2 19  1  0     0  0
  3  5  2  0     0  0
  3  6  1  0     0  0
  3 15  1  0     0  0
  4  7  2  0     0  0
  4  8  1  0     0  0
  4 15  1  0     0  0
  5  9  1  0     0  0
  6 10  2  0     0  0
  7 11  1  0     0  0
  8 12  2  0     0  0
  9 13  2  0     0  0
 10 13  1  0     0  0
 11 14  2  0     0  0
 12 14  1  0     0  0
 16 17  1  0     0  0
M  END
> <standard_type>
pIC50

> <# Confs.>
25

> <canonical_smiles>
CN(CCOC(C1=CC=CC=C1)C2=CC=CC=C2)C

> <standard_relation>
=

> <Publication_ID>
nan

> <predicted_activity_value>
nan

> <actual_activity_value>
-1.4771212547196624

> <Compound>
Diphenhydramine

> <standard_units>
uM

> hash
9891127471022406753

$$$$
14
XXILIB    08252103503D 0   0.00000     0.00000

 19 20  0     1  0            999 V2000
    1.4248   -0.0000    0.0000 O   0  0  0  0  0  2           0  0  0
    2.0405    3.6796    0.4722 N   0  0  1  0  0  3           0  0  0
   -0.4830    0.0000    1.4267 C   0  0  0  0  0  4           0  0  0
   -0.5433   -1.1682   -0.7916 C   0  0  0  0  0  4           0  0  0
   -1.6927    0.6280    1.7584 C   0  0  0  0  0  4           0  0  0
    0.2663   -0.5995    2.4512 C   0  0  0  0  0  4           0  0  0
   -1.7882   -1.0654   -1.4301 C   0  0  0  0  0  4           0  0  0
    0.1633   -2.3774   -0.8870 C   0  0  0  0  0  4           0  0  0
   -2.1454    0.6486    3.0792 C   0  0  0  0  0  4           0  0  0
   -0.1879   -0.5786    3.7712 C   0  0  0  0  0  4           0  0  0
   -2.3090   -2.1411   -2.1521 C   0  0  0  0  0  4           0  0  0
   -0.3584   -3.4518   -1.6098 C   0  0  0  0  0  4           0  0  0
   -1.3937    0.0444    4.0846 C   0  0  0  0  0  4           0  0  0
   -1.5935   -3.3331   -2.2428 C   0  0  0  0  0  4           0  0  0
    0.0000    0.0000    0.0000 C   0  0  2  0  0  4           0  0  0
    2.0031    1.1282    0.6513 C   0  0  0  0  0  4           0  0  0
    1.5503    2.4008   -0.0511 C   0  0  0  0  0  4           0  0  0
    1.5060    4.7881   -0.3218 C   0  0  0  0  0  4           0  0  0
    1.6848    3.8592    1.8820 C   0  0  0  0  0  4           0  0  0
  1 15  1  0     0  0
  1 16  1  0     0  0
  2 17  1  0     0  0
  2 18  1  0     0  0
  2 19  1  0     0  0
  3  5  2  0     0  0
  3  6  1  0     0  0
  3 15  1  0     0  0
  4  7  2  0     0  0
  4  8  1  0     0  0
  4 15  1  0     0  0
  5  9  1  0     0  0
  6 10  2  0     0  0
  7 11  1  0     0  0
  8 12  2  0     0  0
  9 13  2  0     0  0
 10 13  1  0     0  0
 11 14  2  0     0  0
 12 14  1  0     0  0
 16 17  1  0     0  0
M  END
> <standard_type>
pIC50

> <# Confs.>
25

> <canonical_smiles>
CN(CCOC(C1=CC=CC=C1)C2=CC=CC=C2)C

> <standard_relation>
=

> <Publication_ID>
nan

> <predicted_activity_value>
nan

> <actual_activity_value>
-1.4771212547196624

> <Compound>
Diphenhydramine

> <standard_units>
uM

> hash
9891127471022406753

$$$$
14
XXILIB    08252103503D 0   0.00000     0.00000

 19 20  0     1  0            999 V2000
    1.4248    0.0000   -0.0000 O   0  0  0  0  0  2           0  0  0
    4.1473    0.9748   -0.7351 N   0  0  1  0  0  3           0  0  0
   -0.4830   -0.0000    1.4267 C   0  0  0  0  0  4           0  0  0
   -0.5433   -1.1682   -0.7916 C   0  0  0  0  0  4           0  0  0
   -1.6927    0.6280    1.7584 C   0  0  0  0  0  4           0  0  0
    0.2663   -0.5995    2.4512 C   0  0  0  0  0  4           0  0  0
   -0.7731   -2.3989   -0.1589 C   0  0  0  0  0  4           0  0  0
   -0.8057   -1.0597   -2.1664 C   0  0  0  0  0  4           0  0  0
   -2.1454    0.6486    3.0792 C   0  0  0  0  0  4           0  0  0
   -0.1879   -0.5786    3.7712 C   0  0  0  0  0  4           0  0  0
   -1.2605   -3.4904   -0.8807 C   0  0  0  0  0  4           0  0  0
   -1.2937   -2.1517   -2.8865 C   0  0  0  0  0  4           0  0  0
   -1.3937    0.0444    4.0846 C   0  0  0  0  0  4           0  0  0
   -1.5217   -3.3660   -2.2435 C   0  0  0  0  0  4           0  0  0
    0.0000    0.0000    0.0000 C   0  0  2  0  0  4           0  0  0
    2.0031    1.1282    0.6513 C   0  0  0  0  0  4           0  0  0
    3.5206    1.0210    0.5895 C   0  0  0  0  0  4           0  0  0
    3.8273    2.1900   -1.4875 C   0  0  0  0  0  4           0  0  0
    5.6005    0.8151   -0.6408 C   0  0  0  0  0  4           0  0  0
  1 15  1  0     0  0
  1 16  1  0     0  0
  2 17  1  0     0  0
  2 18  1  0     0  0
  2 19  1  0     0  0
  3  5  2  0     0  0
  3  6  1  0     0  0
  3 15  1  0     0  0
  4  7  2  0     0  0
  4  8  1  0     0  0
  4 15  1  0     0  0
  5  9  1  0     0  0
  6 10  2  0     0  0
  7 11  1  0     0  0
  8 12  2  0     0  0
  9 13  2  0     0  0
 10 13  1  0     0  0
 11 14  2  0     0  0
 12 14  1  0     0  0
 16 17  1  0     0  0
M  END
> <standard_type>
pIC50

> <# Confs.>
25

> <canonical_smiles>
CN(CCOC(C1=CC=CC=C1)C2=CC=CC=C2)C

> <standard_relation>
=

> <Publication_ID>
nan

> <predicted_activity_value>
nan

> <actual_activity_value>
-1.4771212547196624

> <Compound>
Diphenhydramine

> <standard_units>
uM

> hash
9891127471022406753

$$$$
14
XXILIB    08252103503D 0   0.00000     0.00000

 19 20  0     1  0            999 V2000
    1.4248   -0.0000   -0.0000 O   0  0  0  0  0  2           0  0  0
    4.1473   -1.1240   -0.4767 N   0  0  1  0  0  3           0  0  0
   -0.4830    0.0000    1.4267 C   0  0  0  0  0  4           0  0  0
   -0.5433   -1.1682   -0.7916 C   0  0  0  0  0  4           0  0  0
   -0.6853    1.2142    2.0995 C   0  0  0  0  0  4           0  0  0
   -0.7171   -1.1989    2.1183 C   0  0  0  0  0  4           0  0  0
   -1.7882   -1.0654   -1.4301 C   0  0  0  0  0  4           0  0  0
    0.1633   -2.3774   -0.8870 C   0  0  0  0  0  4           0  0  0
   -1.1185    1.2291    3.4268 C   0  0  0  0  0  4           0  0  0
   -1.1510   -1.1824    3.4452 C   0  0  0  0  0  4           0  0  0
   -2.3090   -2.1411   -2.1521 C   0  0  0  0  0  4           0  0  0
   -0.3584   -3.4518   -1.6098 C   0  0  0  0  0  4           0  0  0
   -1.3524    0.0311    4.0985 C   0  0  0  0  0  4           0  0  0
   -1.5935   -3.3331   -2.2428 C   0  0  0  0  0  4           0  0  0
    0.0000    0.0000    0.0000 C   0  0  2  0  0  4           0  0  0
    2.0031    0.0000   -1.3027 C   0  0  0  0  0  4           0  0  0
    3.5206    0.0000   -1.1789 C   0  0  0  0  0  4           0  0  0
    5.6022   -0.9574   -0.4545 C   0  0  0  0  0  4           0  0  0
    3.6399   -1.2579    0.8912 C   0  0  0  0  0  4           0  0  0
  1 15  1  0     0  0
  1 16  1  0     0  0
  2 17  1  0     0  0
  2 18  1  0     0  0
  2 19  1  0     0  0
  3  5  2  0     0  0
  3  6  1  0     0  0
  3 15  1  0     0  0
  4  7  2  0     0  0
  4  8  1  0     0  0
  4 15  1  0     0  0
  5  9  1  0     0  0
  6 10  2  0     0  0
  7 11  1  0     0  0
  8 12  2  0     0  0
  9 13  2  0     0  0
 10 13  1  0     0  0
 11 14  2  0     0  0
 12 14  1  0     0  0
 16 17  1  0     0  0
M  END
> <standard_type>
pIC50

> <# Confs.>
25

> <canonical_smiles>
CN(CCOC(C1=CC=CC=C1)C2=CC=CC=C2)C

> <standard_relation>
=

> <Publication_ID>
nan

> <predicted_activity_value>
nan

> <actual_activity_value>
-1.4771212547196624

> <Compound>
Diphenhydramine

> <standard_units>
uM

> hash
9891127471022406753

$$$$
14
XXILIB    08252103503D 0   0.00000     0.00000

 19 20  0     1  0            999 V2000
    1.4248    0.0000   -0.0000 O   0  0  0  0  0  2           0  0  0
    4.1473    1.1240   -0.4767 N   0  0  1  0  0  3           0  0  0
   -0.4830   -0.0000    1.4267 C   0  0  0  0  0  4           0  0  0
   -0.5433   -1.1682   -0.7916 C   0  0  0  0  0  4           0  0  0
   -1.7156   -0.5862    1.7507 C   0  0  0  0  0  4           0  0  0
    0.2663    0.5995    2.4512 C   0  0  0  0  0  4           0  0  0
   -1.7882   -1.0654   -1.4301 C   0  0  0  0  0  4           0  0  0
    0.1633   -2.3774   -0.8870 C   0  0  0  0  0  4           0  0  0
   -2.1827   -0.5804    3.0665 C   0  0  0  0  0  4           0  0  0
   -0.2017    0.6038    3.7665 C   0  0  0  0  0  4           0  0  0
   -2.3090   -2.1411   -2.1521 C   0  0  0  0  0  4           0  0  0
   -0.3584   -3.4518   -1.6098 C   0  0  0  0  0  4           0  0  0
   -1.4252    0.0133    4.0739 C   0  0  0  0  0  4           0  0  0
   -1.5935   -3.3331   -2.2428 C   0  0  0  0  0  4           0  0  0
    0.0000    0.0000    0.0000 C   0  0  2  0  0  4           0  0  0
    2.0031    0.0000   -1.3027 C   0  0  0  0  0  4           0  0  0
    3.5206    0.0000   -1.1789 C   0  0  0  0  0  4           0  0  0
    5.6022    0.9574   -0.4545 C   0  0  0  0  0  4           0  0  0
    3.8018    2.4073   -1.0932 C   0  0  0  0  0  4           0  0  0
  1 15  1  0     0  0
  1 16  1  0     0  0
  2 17  1  0     0  0
  2 18  1  0     0  0
  2 19  1  0     0  0
  3  5  2  0     0  0
  3  6  1  0     0  0
  3 15  1  0     0  0
  4  7  2  0     0  0
  4  8  1  0     0  0
  4 15  1  0     0  0
  5  9  1  0     0  0
  6 10  2  0     0  0
  7 11  1  0     0  0
  8 12  2  0     0  0
  9 13  2  0     0  0
 10 13  1  0     0  0
 11 14  2  0     0  0
 12 14  1  0     0  0
 16 17  1  0     0  0
M  END
> <standard_type>
pIC50

> <# Confs.>
25

> <canonical_smiles>
CN(CCOC(C1=CC=CC=C1)C2=CC=CC=C2)C

> <standard_relation>
=

> <Publication_ID>
nan

> <predicted_activity_value>
nan

> <actual_activity_value>
-1.4771212547196624

> <Compound>
Diphenhydramine

> <standard_units>
uM

> hash
9891127471022406753

$$$$
14
XXILIB    08252103503D 0   0.00000     0.00000

 19 20  0     1  0            999 V2000
    1.4248    0.0000   -0.0000 O   0  0  0  0  0  2           0  0  0
    4.1473    1.1240   -0.4767 N   0  0  1  0  0  3           0  0  0
   -0.4830   -0.0000    1.4267 C   0  0  0  0  0  4           0  0  0
   -0.5433   -1.1682   -0.7916 C   0  0  0  0  0  4           0  0  0
   -1.6927    0.6280    1.7584 C   0  0  0  0  0  4           0  0  0
    0.2663   -0.5995    2.4512 C   0  0  0  0  0  4           0  0  0
   -0.7731   -2.3989   -0.1589 C   0  0  0  0  0  4           0  0  0
   -0.8057   -1.0597   -2.1664 C   0  0  0  0  0  4           0  0  0
   -2.1454    0.6486    3.0792 C   0  0  0  0  0  4           0  0  0
   -0.1879   -0.5786    3.7712 C   0  0  0  0  0  4           0  0  0
   -1.2605   -3.4904   -0.8807 C   0  0  0  0  0  4           0  0  0
   -1.2937   -2.1517   -2.8865 C   0  0  0  0  0  4           0  0  0
   -1.3937    0.0444    4.0846 C   0  0  0  0  0  4           0  0  0
   -1.5217   -3.3660   -2.2435 C   0  0  0  0  0  4           0  0  0
    0.0000    0.0000    0.0000 C   0  0  2  0  0  4           0  0  0
    2.0031    0.0000   -1.3027 C   0  0  0  0  0  4           0  0  0
    3.5206    0.0000   -1.1789 C   0  0  0  0  0  4           0  0  0
    3.8273    2.3832   -1.1529 C   0  0  0  0  0  4           0  0  0
    3.7251    1.1894    0.9247 C   0  0  0  0  0  4           0  0  0
  1 15  1  0     0  0
  1 16  1  0     0  0
  2 17  1  0     0  0
  2 18  1  0     0  0
  2 19  1  0     0  0
  3  5  2  0     0  0
  3  6  1  0     0  0
  3 15  1  0     0  0
  4  7  2  0     0  0
  4  8  1  0     0  0
  4 15  1  0     0  0
  5  9  1  0     0  0
  6 10  2  0     0  0
  7 11  1  0     0  0
  8 12  2  0     0  0
  9 13  2  0     0  0
 10 13  1  0     0  0
 11 14  2  0     0  0
 12 14  1  0     0  0
 16 17  1  0     0  0
M  END
> <standard_type>
pIC50

> <# Confs.>
25

> <canonical_smiles>
CN(CCOC(C1=CC=CC=C1)C2=CC=CC=C2)C

> <standard_relation>
=

> <Publication_ID>
nan

> <predicted_activity_value>
nan

> <actual_activity_value>
-1.4771212547196624

> <Compound>
Diphenhydramine

> <standard_units>
uM

> hash
9891127471022406753

$$$$
14
XXILIB    08252103503D 0   0.00000     0.00000

 19 20  0     1  0            999 V2000
    1.4248    0.0000   -0.0000 O   0  0  0  0  0  2           0  0  0
    4.1473    0.9748   -0.7351 N   0  0  1  0  0  3           0  0  0
   -0.4830    0.0000    1.4267 C   0  0  0  0  0  4           0  0  0
   -0.5433   -1.1682   -0.7916 C   0  0  0  0  0  4           0  0  0
   -1.6927    0.6280    1.7584 C   0  0  0  0  0  4           0  0  0
    0.2663   -0.5995    2.4512 C   0  0  0  0  0  4           0  0  0
   -1.7657   -1.7537   -0.4298 C   0  0  0  0  0  4           0  0  0
    0.1633   -1.7048   -1.8794 C   0  0  0  0  0  4           0  0  0
   -2.1454    0.6486    3.0792 C   0  0  0  0  0  4           0  0  0
   -0.1879   -0.5786    3.7712 C   0  0  0  0  0  4           0  0  0
   -2.2722   -2.8423   -1.1426 C   0  0  0  0  0  4           0  0  0
   -0.3448   -2.7928   -2.5916 C   0  0  0  0  0  4           0  0  0
   -1.3937    0.0444    4.0846 C   0  0  0  0  0  4           0  0  0
   -1.5625   -3.3605   -2.2237 C   0  0  0  0  0  4           0  0  0
    0.0000    0.0000    0.0000 C   0  0  2  0  0  4           0  0  0
    2.0031    1.1282    0.6513 C   0  0  0  0  0  4           0  0  0
    3.5206    1.0210    0.5895 C   0  0  0  0  0  4           0  0  0
    3.8273    2.1900   -1.4875 C   0  0  0  0  0  4           0  0  0
    5.6005    0.8151   -0.6408 C   0  0  0  0  0  4           0  0  0
  1 15  1  0     0  0
  1 16  1  0     0  0
  2 17  1  0     0  0
  2 18  1  0     0  0
  2 19  1  0     0  0
  3  5  2  0     0  0
  3  6  1  0     0  0
  3 15  1  0     0  0
  4  7  2  0     0  0
  4  8  1  0     0  0
  4 15  1  0     0  0
  5  9  1  0     0  0
  6 10  2  0     0  0
  7 11  1  0     0  0
  8 12  2  0     0  0
  9 13  2  0     0  0
 10 13  1  0     0  0
 11 14  2  0     0  0
 12 14  1  0     0  0
 16 17  1  0     0  0
M  END
> <standard_type>
pIC50

> <# Confs.>
25

> <canonical_smiles>
CN(CCOC(C1=CC=CC=C1)C2=CC=CC=C2)C

> <standard_relation>
=

> <Publication_ID>
nan

> <predicted_activity_value>
nan

> <actual_activity_value>
-1.4771212547196624

> <Compound>
Diphenhydramine

> <standard_units>
uM

> hash
9891127471022406753

$$$$
22
XXILIB    08252103503D 0   0.00000     0.00000

 23 26  0     1  0            999 V2000
    2.0744   -0.0000    1.0166 O   0  0  0  0  0  2           0  0  0
    1.9877   -0.0070   -3.4487 N   0  0  0  0  0  3           0  0  0
    1.1661    0.0016   -2.3874 N   0  0  0  0  0  3           0  0  0
   -3.5816    0.7848    1.9889 N   0  0  1  0  0  3           0  0  0
    0.0000    0.0000    0.0000 N   0  0  0  0  0  3           0  0  0
    3.3180    0.0052   -3.1262 C   0  0  0  0  0  4           0  0  0
    1.9839    0.0018   -1.3247 C   0  0  0  0  0  4           0  0  0
    3.3548    0.0083   -1.7312 C   0  0  0  0  0  4           0  0  0
    4.4774    0.0162   -3.9139 C   0  0  0  0  0  4           0  0  0
    4.6120    0.0205   -1.0917 C   0  0  0  0  0  4           0  0  0
    5.7095    0.0277   -3.2561 C   0  0  0  0  0  4           0  0  0
    5.7779    0.0298   -1.8663 C   0  0  0  0  0  4           0  0  0
    1.3844    0.0000    0.0000 C   0  0  0  0  0  4           0  0  0
    1.4026   -0.0104   -4.7671 C   0  0  0  0  0  4           0  0  0
   -2.4448    1.5031    2.5826 C   0  0  2  0  0  4           0  0  0
   -3.2871   -0.6536    1.9131 C   0  0  1  0  0  4           0  0  0
   -0.9072    0.0000    1.1438 C   0  0  1  0  0  4           0  0  0
   -4.8542    1.0796    2.6396 C   0  0  0  0  0  4           0  0  0
   -1.2637    1.4254    1.5933 C   0  0  0  0  0  4           0  0  0
   -2.1590   -0.8508    0.8803 C   0  0  0  0  0  4           0  0  0
   -2.0974    1.0041    3.9976 C   0  0  0  0  0  4           0  0  0
   -2.9794   -1.2756    3.2885 C   0  0  0  0  0  4           0  0  0
   -1.9532   -0.5103    4.1202 C   0  0  0  0  0  4           0  0  0
  1 13  2  0     0  0
  2  3  1  0     0  0
  2  6  1  0     0  0
  2 14  1  0     0  0
  3  7  2  0     0  0
  4 15  1  0     0  0
  4 16  1  0     0  0
  4 18  1  0     0  0
  5 13  1  0     0  0
  5 17  1  0     0  0
  6  8  1  0     0  0
  6  9  2  0     0  0
  7  8  1  0     0  0
  7 13  1  0     0  0
  8 10  2  0     0  0
  9 11  1  0     0  0
 10 12  1  0     0  0
 11 12  2  0     0  0
 15 19  1  0     0  0
 15 21  1  0     0  0
 16 20  1  0     0  0
 16 22  1  0     0  0
 17 19  1  0     0  0
 17 20  1  0     0  0
 21 23  1  0     0  0
 22 23  1  0     0  0
M  END
> <standard_type>
pIC50

> <# Confs.>
25

> <canonical_smiles>
O=C(N[C@@H]1C[C@@H]2CCC[C@H](C1)N2C)C(C3=CC=CC=C34)=NN4C

> <standard_relation>
=

> <Publication_ID>
nan

> <predicted_activity_value>
nan

> <actual_activity_value>
-0.5717088318086876

> <Compound>
Granisetron

> <standard_units>
uM

> hash
616763807710810339

$$$$
22
XXILIB    08252103503D 0   0.00000     0.00000

 23 26  0     1  0            999 V2000
    2.0744   -0.0000    1.0166 O   0  0  0  0  0  2           0  0  0
    1.9877   -0.0070   -3.4487 N   0  0  0  0  0  3           0  0  0
    1.1661    0.0016   -2.3874 N   0  0  0  0  0  3           0  0  0
   -3.4990   -0.9674    2.0544 N   0  0  1  0  0  3           0  0  0
    0.0000    0.0000   -0.0000 N   0  0  0  0  0  3           0  0  0
    3.3180    0.0052   -3.1262 C   0  0  0  0  0  4           0  0  0
    1.9839    0.0018   -1.3247 C   0  0  0  0  0  4           0  0  0
    3.3548    0.0083   -1.7312 C   0  0  0  0  0  4           0  0  0
    4.4774    0.0162   -3.9139 C   0  0  0  0  0  4           0  0  0
    4.6120    0.0205   -1.0917 C   0  0  0  0  0  4           0  0  0
    5.7095    0.0277   -3.2561 C   0  0  0  0  0  4           0  0  0
    5.7779    0.0298   -1.8663 C   0  0  0  0  0  4           0  0  0
    1.3844    0.0000    0.0000 C   0  0  0  0  0  4           0  0  0
    1.4026   -0.0104   -4.7671 C   0  0  0  0  0  4           0  0  0
   -3.3430    0.4826    1.8702 C   0  0  2  0  0  4           0  0  0
   -2.3005   -1.5275    2.6956 C   0  0  1  0  0  4           0  0  0
   -0.9072    0.0000    1.1438 C   0  0  1  0  0  4           0  0  0
   -4.7395   -1.3333    2.7306 C   0  0  0  0  0  4           0  0  0
   -2.2309    0.7127    0.8262 C   0  0  0  0  0  4           0  0  0
   -1.1334   -1.4165    1.6938 C   0  0  0  0  0  4           0  0  0
   -3.1082    1.2303    3.1959 C   0  0  0  0  0  4           0  0  0
   -2.0000   -0.8896    4.0654 C   0  0  0  0  0  4           0  0  0
   -2.0105    0.6369    4.0748 C   0  0  0  0  0  4           0  0  0
  1 13  2  0     0  0
  2  3  1  0     0  0
  2  6  1  0     0  0
  2 14  1  0     0  0
  3  7  2  0     0  0
  4 15  1  0     0  0
  4 16  1  0     0  0
  4 18  1  0     0  0
  5 13  1  0     0  0
  5 17  1  0     0  0
  6  8  1  0     0  0
  6  9  2  0     0  0
  7  8  1  0     0  0
  7 13  1  0     0  0
  8 10  2  0     0  0
  9 11  1  0     0  0
 10 12  1  0     0  0
 11 12  2  0     0  0
 15 19  1  0     0  0
 15 21  1  0     0  0
 16 20  1  0     0  0
 16 22  1  0     0  0
 17 19  1  0     0  0
 17 20  1  0     0  0
 21 23  1  0     0  0
 22 23  1  0     0  0
M  END
> <standard_type>
pIC50

> <# Confs.>
25

> <canonical_smiles>
O=C(N[C@@H]1C[C@@H]2CCC[C@H](C1)N2C)C(C3=CC=CC=C34)=NN4C

> <standard_relation>
=

> <Publication_ID>
nan

> <predicted_activity_value>
nan

> <actual_activity_value>
-0.5717088318086876

> <Compound>
Granisetron

> <standard_units>
uM

> hash
616763807710810339

$$$$
22
XXILIB    08252103503D 0   0.00000     0.00000

 23 26  0     1  0            999 V2000
    2.0744   -0.0000    1.0166 O   0  0  0  0  0  2           0  0  0
    1.9877   -0.0070   -3.4487 N   0  0  0  0  0  3           0  0  0
    1.1661    0.0016   -2.3874 N   0  0  0  0  0  3           0  0  0
   -1.0802    0.1068    4.1213 N   0  0  1  0  0  3           0  0  0
    0.0000    0.0000    0.0000 N   0  0  0  0  0  3           0  0  0
    3.3180    0.0052   -3.1262 C   0  0  0  0  0  4           0  0  0
    1.9839    0.0018   -1.3247 C   0  0  0  0  0  4           0  0  0
    3.3548    0.0083   -1.7312 C   0  0  0  0  0  4           0  0  0
    4.4774    0.0162   -3.9139 C   0  0  0  0  0  4           0  0  0
    4.6120    0.0205   -1.0917 C   0  0  0  0  0  4           0  0  0
    5.7095    0.0277   -3.2561 C   0  0  0  0  0  4           0  0  0
    5.7779    0.0298   -1.8663 C   0  0  0  0  0  4           0  0  0
    1.3844    0.0000    0.0000 C   0  0  0  0  0  4           0  0  0
    1.4026   -0.0104   -4.7671 C   0  0  0  0  0  4           0  0  0
   -1.3905   -1.1430    3.4124 C   0  0  2  0  0  4           0  0  0
   -1.5059    1.2630    3.3196 C   0  0  1  0  0  4           0  0  0
   -0.9072    0.0000    1.1438 C   0  0  1  0  0  4           0  0  0
    0.3071    0.1906    4.5648 C   0  0  0  0  0  4           0  0  0
   -0.7046   -1.2337    2.0346 C   0  0  0  0  0  4           0  0  0
   -0.8273    1.3125    1.9360 C   0  0  0  0  0  4           0  0  0
   -2.9239   -1.2847    3.3493 C   0  0  0  0  0  4           0  0  0
   -3.0456    1.2525    3.2521 C   0  0  0  0  0  4           0  0  0
   -3.6525   -0.0680    2.7808 C   0  0  0  0  0  4           0  0  0
  1 13  2  0     0  0
  2  3  1  0     0  0
  2  6  1  0     0  0
  2 14  1  0     0  0
  3  7  2  0     0  0
  4 15  1  0     0  0
  4 16  1  0     0  0
  4 18  1  0     0  0
  5 13  1  0     0  0
  5 17  1  0     0  0
  6  8  1  0     0  0
  6  9  2  0     0  0
  7  8  1  0     0  0
  7 13  1  0     0  0
  8 10  2  0     0  0
  9 11  1  0     0  0
 10 12  1  0     0  0
 11 12  2  0     0  0
 15 19  1  0     0  0
 15 21  1  0     0  0
 16 20  1  0     0  0
 16 22  1  0     0  0
 17 19  1  0     0  0
 17 20  1  0     0  0
 21 23  1  0     0  0
 22 23  1  0     0  0
M  END
> <standard_type>
pIC50

> <# Confs.>
25

> <canonical_smiles>
O=C(N[C@@H]1C[C@@H]2CCC[C@H](C1)N2C)C(C3=CC=CC=C34)=NN4C

> <standard_relation>
=

> <Publication_ID>
nan

> <predicted_activity_value>
nan

> <actual_activity_value>
-0.5717088318086876

> <Compound>
Granisetron

> <standard_units>
uM

> hash
616763807710810339

$$$$
22
XXILIB    08252103503D 0   0.00000     0.00000

 23 26  0     1  0            999 V2000
    2.0744   -0.0000    1.0166 O   0  0  0  0  0  2           0  0  0
    1.9877   -0.0070   -3.4487 N   0  0  0  0  0  3           0  0  0
    1.1661    0.0016   -2.3874 N   0  0  0  0  0  3           0  0  0
   -3.7672   -0.1068    1.9901 N   0  0  1  0  0  3           0  0  0
    0.0000    0.0000   -0.0000 N   0  0  0  0  0  3           0  0  0
    3.3180    0.0052   -3.1262 C   0  0  0  0  0  4           0  0  0
    1.9839    0.0018   -1.3247 C   0  0  0  0  0  4           0  0  0
    3.3548    0.0083   -1.7312 C   0  0  0  0  0  4           0  0  0
    4.4774    0.0162   -3.9139 C   0  0  0  0  0  4           0  0  0
    4.6120    0.0205   -1.0917 C   0  0  0  0  0  4           0  0  0
    5.7095    0.0277   -3.2561 C   0  0  0  0  0  4           0  0  0
    5.7779    0.0298   -1.8663 C   0  0  0  0  0  4           0  0  0
    1.3844    0.0000    0.0000 C   0  0  0  0  0  4           0  0  0
    1.4026   -0.0104   -4.7671 C   0  0  0  0  0  4           0  0  0
   -3.0062    1.1430    2.1309 C   0  0  2  0  0  4           0  0  0
   -2.8896   -1.2630    2.2221 C   0  0  1  0  0  4           0  0  0
   -0.9072    0.0000    1.1438 C   0  0  1  0  0  4           0  0  0
   -4.5148   -0.1906    0.7402 C   0  0  0  0  0  4           0  0  0
   -1.8208    1.2337    1.1493 C   0  0  0  0  0  4           0  0  0
   -1.6969   -1.3125    1.2463 C   0  0  0  0  0  4           0  0  0
   -2.5957    1.2847    3.6096 C   0  0  0  0  0  4           0  0  0
   -2.4734   -1.2525    3.7060 C   0  0  0  0  0  4           0  0  0
   -1.8762    0.0680    4.1897 C   0  0  0  0  0  4           0  0  0
  1 13  2  0     0  0
  2  3  1  0     0  0
  2  6  1  0     0  0
  2 14  1  0     0  0
  3  7  2  0     0  0
  4 15  1  0     0  0
  4 16  1  0     0  0
  4 18  1  0     0  0
  5 13  1  0     0  0
  5 17  1  0     0  0
  6  8  1  0     0  0
  6  9  2  0     0  0
  7  8  1  0     0  0
  7 13  1  0     0  0
  8 10  2  0     0  0
  9 11  1  0     0  0
 10 12  1  0     0  0
 11 12  2  0     0  0
 15 19  1  0     0  0
 15 21  1  0     0  0
 16 20  1  0     0  0
 16 22  1  0     0  0
 17 19  1  0     0  0
 17 20  1  0     0  0
 21 23  1  0     0  0
 22 23  1  0     0  0
M  END
> <standard_type>
pIC50

> <# Confs.>
25

> <canonical_smiles>
O=C(N[C@@H]1C[C@@H]2CCC[C@H](C1)N2C)C(C3=CC=CC=C34)=NN4C

> <standard_relation>
=

> <Publication_ID>
nan

> <predicted_activity_value>
nan

> <actual_activity_value>
-0.5717088318086876

> <Compound>
Granisetron

> <standard_units>
uM

> hash
616763807710810339

$$$$
22
XXILIB    08252103503D 0   0.00000     0.00000

 23 26  0     1  0            999 V2000
    2.0744   -0.0000    1.0166 O   0  0  0  0  0  2           0  0  0
    1.9877   -0.0070   -3.4487 N   0  0  0  0  0  3           0  0  0
    1.1661    0.0016   -2.3874 N   0  0  0  0  0  3           0  0  0
   -3.1679    1.4316    2.4655 N   0  0  1  0  0  3           0  0  0
    0.0000    0.0000    0.0000 N   0  0  0  0  0  3           0  0  0
    3.3180    0.0052   -3.1262 C   0  0  0  0  0  4           0  0  0
    1.9839    0.0018   -1.3247 C   0  0  0  0  0  4           0  0  0
    3.3548    0.0083   -1.7312 C   0  0  0  0  0  4           0  0  0
    4.4774    0.0162   -3.9139 C   0  0  0  0  0  4           0  0  0
    4.6120    0.0205   -1.0917 C   0  0  0  0  0  4           0  0  0
    5.7095    0.0277   -3.2561 C   0  0  0  0  0  4           0  0  0
    5.7779    0.0298   -1.8663 C   0  0  0  0  0  4           0  0  0
    1.3844    0.0000    0.0000 C   0  0  0  0  0  4           0  0  0
    1.4026   -0.0104   -4.7671 C   0  0  0  0  0  4           0  0  0
   -1.8268    1.4644    3.0663 C   0  0  2  0  0  4           0  0  0
   -3.4006    0.1332    1.8168 C   0  0  1  0  0  4           0  0  0
   -0.9072    0.0000    1.1438 C   0  0  1  0  0  4           0  0  0
   -3.4387    2.5697    1.5937 C   0  0  0  0  0  4           0  0  0
   -0.7046    1.2337    2.0346 C   0  0  0  0  0  4           0  0  0
   -2.3700   -0.1757    0.7124 C   0  0  0  0  0  4           0  0  0
   -1.8061    0.4609    4.2359 C   0  0  0  0  0  4           0  0  0
   -3.4662   -0.9425    2.9185 C   0  0  0  0  0  4           0  0  0
   -2.2742   -0.9477    3.8741 C   0  0  0  0  0  4           0  0  0
  1 13  2  0     0  0
  2  3  1  0     0  0
  2  6  1  0     0  0
  2 14  1  0     0  0
  3  7  2  0     0  0
  4 15  1  0     0  0
  4 16  1  0     0  0
  4 18  1  0     0  0
  5 13  1  0     0  0
  5 17  1  0     0  0
  6  8  1  0     0  0
  6  9  2  0     0  0
  7  8  1  0     0  0
  7 13  1  0     0  0
  8 10  2  0     0  0
  9 11  1  0     0  0
 10 12  1  0     0  0
 11 12  2  0     0  0
 15 19  1  0     0  0
 15 21  1  0     0  0
 16 20  1  0     0  0
 16 22  1  0     0  0
 17 19  1  0     0  0
 17 20  1  0     0  0
 21 23  1  0     0  0
 22 23  1  0     0  0
M  END
> <standard_type>
pIC50

> <# Confs.>
25

> <canonical_smiles>
O=C(N[C@@H]1C[C@@H]2CCC[C@H](C1)N2C)C(C3=CC=CC=C34)=NN4C

> <standard_relation>
=

> <Publication_ID>
nan

> <predicted_activity_value>
nan

> <actual_activity_value>
-0.5717088318086876

> <Compound>
Granisetron

> <standard_units>
uM

> hash
616763807710810339

$$$$
22
XXILIB    08252103503D 0   0.00000     0.00000

 23 26  0     1  0            999 V2000
    2.0744   -0.0000    1.0166 O   0  0  0  0  0  2           0  0  0
    1.9877   -0.0070   -3.4487 N   0  0  0  0  0  3           0  0  0
    1.1661    0.0016   -2.3874 N   0  0  0  0  0  3           0  0  0
   -3.0230   -1.5384    2.5804 N   0  0  1  0  0  3           0  0  0
    0.0000    0.0000    0.0000 N   0  0  0  0  0  3           0  0  0
    3.3180    0.0052   -3.1262 C   0  0  0  0  0  4           0  0  0
    1.9839    0.0018   -1.3247 C   0  0  0  0  0  4           0  0  0
    3.3548    0.0083   -1.7312 C   0  0  0  0  0  4           0  0  0
    4.4774    0.0162   -3.9139 C   0  0  0  0  0  4           0  0  0
    4.6120    0.0205   -1.0917 C   0  0  0  0  0  4           0  0  0
    5.7095    0.0277   -3.2561 C   0  0  0  0  0  4           0  0  0
    5.7779    0.0298   -1.8663 C   0  0  0  0  0  4           0  0  0
    1.3844    0.0000    0.0000 C   0  0  0  0  0  4           0  0  0
    1.4026   -0.0104   -4.7671 C   0  0  0  0  0  4           0  0  0
   -3.3778   -0.3215    1.8361 C   0  0  2  0  0  4           0  0  0
   -1.6867   -1.3962    3.1762 C   0  0  1  0  0  4           0  0  0
   -0.9072    0.0000    1.1438 C   0  0  1  0  0  4           0  0  0
   -3.1800   -2.7603    1.7989 C   0  0  0  0  0  4           0  0  0
   -2.3788   -0.0000    0.7067 C   0  0  0  0  0  4           0  0  0
   -0.5890   -1.1368    2.1251 C   0  0  0  0  0  4           0  0  0
   -3.5494    0.8238    2.8532 C   0  0  0  0  0  4           0  0  0
   -1.7666   -0.3100    4.2666 C   0  0  0  0  0  4           0  0  0
   -2.3665    1.0157    3.8009 C   0  0  0  0  0  4           0  0  0
  1 13  2  0     0  0
  2  3  1  0     0  0
  2  6  1  0     0  0
  2 14  1  0     0  0
  3  7  2  0     0  0
  4 15  1  0     0  0
  4 16  1  0     0  0
  4 18  1  0     0  0
  5 13  1  0     0  0
  5 17  1  0     0  0
  6  8  1  0     0  0
  6  9  2  0     0  0
  7  8  1  0     0  0
  7 13  1  0     0  0
  8 10  2  0     0  0
  9 11  1  0     0  0
 10 12  1  0     0  0
 11 12  2  0     0  0
 15 19  1  0     0  0
 15 21  1  0     0  0
 16 20  1  0     0  0
 16 22  1  0     0  0
 17 19  1  0     0  0
 17 20  1  0     0  0
 21 23  1  0     0  0
 22 23  1  0     0  0
M  END
> <standard_type>
pIC50

> <# Confs.>
25

> <canonical_smiles>
O=C(N[C@@H]1C[C@@H]2CCC[C@H](C1)N2C)C(C3=CC=CC=C34)=NN4C

> <standard_relation>
=

> <Publication_ID>
nan

> <predicted_activity_value>
nan

> <actual_activity_value>
-0.5717088318086876

> <Compound>
Granisetron

> <standard_units>
uM

> hash
616763807710810339

$$$$
22
XXILIB    08252103503D 0   0.00000     0.00000

 23 26  0     1  0            999 V2000
    2.0744   -0.0000    1.0166 O   0  0  0  0  0  2           0  0  0
    2.0994   -0.4416   -3.3987 N   0  0  0  0  0  3           0  0  0
    1.3113   -0.5898   -2.3225 N   0  0  0  0  0  3           0  0  0
   -3.1094    1.4647    2.3635 N   0  0  1  0  0  3           0  0  0
    0.0000    0.0000    0.0000 N   0  0  0  0  0  3           0  0  0
    3.2599    0.2415   -3.1522 C   0  0  0  0  0  4           0  0  0
    1.9839    0.0018   -1.3247 C   0  0  0  0  0  4           0  0  0
    3.2201    0.5483   -1.7915 C   0  0  0  0  0  4           0  0  0
    4.3254    0.6169   -3.9819 C   0  0  0  0  0  4           0  0  0
    4.2993    1.2633   -1.2315 C   0  0  0  0  0  4           0  0  0
    5.3818    1.3237   -3.4027 C   0  0  0  0  0  4           0  0  0
    5.3708    1.6430   -2.0484 C   0  0  0  0  0  4           0  0  0
    1.3844   -0.0000   -0.0000 C   0  0  0  0  0  4           0  0  0
    1.6481   -0.9827   -4.6573 C   0  0  0  0  0  4           0  0  0
   -1.8234    1.4570    3.0755 C   0  0  2  0  0  4           0  0  0
   -3.3976    0.1272    1.8254 C   0  0  1  0  0  4           0  0  0
   -0.9072    0.0000    1.1438 C   0  0  1  0  0  4           0  0  0
   -4.2043    2.0164    3.1551 C   0  0  0  0  0  4           0  0  0
   -0.7054    1.2344    2.0362 C   0  0  0  0  0  4           0  0  0
   -2.3721   -0.1646    0.7112 C   0  0  0  0  0  4           0  0  0
   -1.7924    0.4491    4.2396 C   0  0  0  0  0  4           0  0  0
   -3.4486   -0.9594    2.9164 C   0  0  0  0  0  4           0  0  0
   -2.2613   -0.9570    3.8759 C   0  0  0  0  0  4           0  0  0
  1 13  2  0     0  0
  2  3  1  0     0  0
  2  6  1  0     0  0
  2 14  1  0     0  0
  3  7  2  0     0  0
  4 15  1  0     0  0
  4 16  1  0     0  0
  4 18  1  0     0  0
  5 13  1  0     0  0
  5 17  1  0     0  0
  6  8  1  0     0  0
  6  9  2  0     0  0
  7  8  1  0     0  0
  7 13  1  0     0  0
  8 10  2  0     0  0
  9 11  1  0     0  0
 10 12  1  0     0  0
 11 12  2  0     0  0
 15 19  1  0     0  0
 15 21  1  0     0  0
 16 20  1  0     0  0
 16 22  1  0     0  0
 17 19  1  0     0  0
 17 20  1  0     0  0
 21 23  1  0     0  0
 22 23  1  0     0  0
M  END
> <standard_type>
pIC50

> <# Confs.>
25

> <canonical_smiles>
O=C(N[C@@H]1C[C@@H]2CCC[C@H](C1)N2C)C(C3=CC=CC=C34)=NN4C

> <standard_relation>
=

> <Publication_ID>
nan

> <predicted_activity_value>
nan

> <actual_activity_value>
-0.5717088318086876

> <Compound>
Granisetron

> <standard_units>
uM

> hash
616763807710810339

$$$$
22
XXILIB    08252103503D 0   0.00000     0.00000

 23 26  0     1  0            999 V2000
    2.0744    0.0000    1.0166 O   0  0  0  0  0  2           0  0  0
    2.0888    0.4306   -3.4023 N   0  0  0  0  0  3           0  0  0
    1.3099    0.5933   -2.3216 N   0  0  0  0  0  3           0  0  0
   -2.9663   -1.5702    2.4769 N   0  0  1  0  0  3           0  0  0
    0.0000    0.0000    0.0000 N   0  0  0  0  0  3           0  0  0
    3.2608   -0.2313   -3.1524 C   0  0  0  0  0  4           0  0  0
    1.9839    0.0018   -1.3247 C   0  0  0  0  0  4           0  0  0
    3.2256   -0.5332   -1.7904 C   0  0  0  0  0  4           0  0  0
    4.3354   -0.5874   -3.9790 C   0  0  0  0  0  4           0  0  0
    4.3167   -1.2271   -1.2269 C   0  0  0  0  0  4           0  0  0
    5.4030   -1.2742   -3.3965 C   0  0  0  0  0  4           0  0  0
    5.3957   -1.5903   -2.0414 C   0  0  0  0  0  4           0  0  0
    1.3844    0.0000   -0.0000 C   0  0  0  0  0  4           0  0  0
    1.6329    0.9661   -4.6616 C   0  0  0  0  0  4           0  0  0
   -3.3791   -0.3106    1.8416 C   0  0  2  0  0  4           0  0  0
   -1.6888   -1.3865    3.1808 C   0  0  1  0  0  4           0  0  0
   -0.9072    0.0000    1.1438 C   0  0  1  0  0  4           0  0  0
   -4.0055   -2.1628    3.3127 C   0  0  0  0  0  4           0  0  0
   -2.3805   -0.0000    0.7075 C   0  0  0  0  0  4           0  0  0
   -0.5957   -1.1444    2.1202 C   0  0  0  0  0  4           0  0  0
   -3.5430    0.8409    2.8511 C   0  0  0  0  0  4           0  0  0
   -1.7522   -0.2907    4.2619 C   0  0  0  0  0  4           0  0  0
   -2.3605    1.0301    3.7972 C   0  0  0  0  0  4           0  0  0
  1 13  2  0     0  0
  2  3  1  0     0  0
  2  6  1  0     0  0
  2 14  1  0     0  0
  3  7  2  0     0  0
  4 15  1  0     0  0
  4 16  1  0     0  0
  4 18  1  0     0  0
  5 13  1  0     0  0
  5 17  1  0     0  0
  6  8  1  0     0  0
  6  9  2  0     0  0
  7  8  1  0     0  0
  7 13  1  0     0  0
  8 10  2  0     0  0
  9 11  1  0     0  0
 10 12  1  0     0  0
 11 12  2  0     0  0
 15 19  1  0     0  0
 15 21  1  0     0  0
 16 20  1  0     0  0
 16 22  1  0     0  0
 17 19  1  0     0  0
 17 20  1  0     0  0
 21 23  1  0     0  0
 22 23  1  0     0  0
M  END
> <standard_type>
pIC50

> <# Confs.>
25

> <canonical_smiles>
O=C(N[C@@H]1C[C@@H]2CCC[C@H](C1)N2C)C(C3=CC=CC=C34)=NN4C

> <standard_relation>
=

> <Publication_ID>
nan

> <predicted_activity_value>
nan

> <actual_activity_value>
-0.5717088318086876

> <Compound>
Granisetron

> <standard_units>
uM

> hash
616763807710810339

$$$$
22
XXILIB    08252103503D 0   0.00000     0.00000

 23 26  0     1  0            999 V2000
    2.0744   -0.0000    1.0166 O   0  0  0  0  0  2           0  0  0
    1.9877   -0.0070   -3.4487 N   0  0  0  0  0  3           0  0  0
    1.1661    0.0016   -2.3874 N   0  0  0  0  0  3           0  0  0
   -2.3938   -0.0095    3.3502 N   0  0  1  0  0  3           0  0  0
    0.0000    0.0000    0.0000 N   0  0  0  0  0  3           0  0  0
    3.3180    0.0052   -3.1262 C   0  0  0  0  0  4           0  0  0
    1.9839    0.0018   -1.3247 C   0  0  0  0  0  4           0  0  0
    3.3548    0.0083   -1.7312 C   0  0  0  0  0  4           0  0  0
    4.4774    0.0162   -3.9139 C   0  0  0  0  0  4           0  0  0
    4.6120    0.0205   -1.0917 C   0  0  0  0  0  4           0  0  0
    5.7095    0.0277   -3.2561 C   0  0  0  0  0  4           0  0  0
    5.7779    0.0298   -1.8663 C   0  0  0  0  0  4           0  0  0
    1.3844    0.0000    0.0000 C   0  0  0  0  0  4           0  0  0
    1.4026   -0.0104   -4.7671 C   0  0  0  0  0  4           0  0  0
   -1.4862    1.1488    3.3810 C   0  0  2  0  0  4           0  0  0
   -1.6145   -1.2565    3.2842 C   0  0  1  0  0  4           0  0  0
   -0.9072    0.0000    1.1438 C   0  0  1  0  0  4           0  0  0
   -3.3915    0.0013    4.4130 C   0  0  0  0  0  4           0  0  0
   -0.7111    1.2330    2.0421 C   0  0  0  0  0  4           0  0  0
   -0.8458   -1.3150    1.9397 C   0  0  0  0  0  4           0  0  0
   -0.5221    1.1054    4.5851 C   0  0  0  0  0  4           0  0  0
   -0.6564   -1.4126    4.4839 C   0  0  0  0  0  4           0  0  0
    0.2607   -0.2041    4.6617 C   0  0  0  0  0  4           0  0  0
  1 13  2  0     0  0
  2  3  1  0     0  0
  2  6  1  0     0  0
  2 14  1  0     0  0
  3  7  2  0     0  0
  4 15  1  0     0  0
  4 16  1  0     0  0
  4 18  1  0     0  0
  5 13  1  0     0  0
  5 17  1  0     0  0
  6  8  1  0     0  0
  6  9  2  0     0  0
  7  8  1  0     0  0
  7 13  1  0     0  0
  8 10  2  0     0  0
  9 11  1  0     0  0
 10 12  1  0     0  0
 11 12  2  0     0  0
 15 19  1  0     0  0
 15 21  1  0     0  0
 16 20  1  0     0  0
 16 22  1  0     0  0
 17 19  1  0     0  0
 17 20  1  0     0  0
 21 23  1  0     0  0
 22 23  1  0     0  0
M  END
> <standard_type>
pIC50

> <# Confs.>
25

> <canonical_smiles>
O=C(N[C@@H]1C[C@@H]2CCC[C@H](C1)N2C)C(C3=CC=CC=C34)=NN4C

> <standard_relation>
=

> <Publication_ID>
nan

> <predicted_activity_value>
nan

> <actual_activity_value>
-0.5717088318086876

> <Compound>
Granisetron

> <standard_units>
uM

> hash
616763807710810339

$$$$
22
XXILIB    08252103503D 0   0.00000     0.00000

 23 26  0     1  0            999 V2000
    2.0744    0.0000    1.0166 O   0  0  0  0  0  2           0  0  0
    2.0888    0.4306   -3.4023 N   0  0  0  0  0  3           0  0  0
    1.3099    0.5933   -2.3216 N   0  0  0  0  0  3           0  0  0
   -0.9787    0.1054    4.0535 N   0  0  1  0  0  3           0  0  0
    0.0000    0.0000    0.0000 N   0  0  0  0  0  3           0  0  0
    3.2608   -0.2313   -3.1524 C   0  0  0  0  0  4           0  0  0
    1.9839    0.0018   -1.3247 C   0  0  0  0  0  4           0  0  0
    3.2256   -0.5332   -1.7904 C   0  0  0  0  0  4           0  0  0
    4.3354   -0.5874   -3.9790 C   0  0  0  0  0  4           0  0  0
    4.3167   -1.2271   -1.2269 C   0  0  0  0  0  4           0  0  0
    5.4030   -1.2742   -3.3965 C   0  0  0  0  0  4           0  0  0
    5.3957   -1.5903   -2.0414 C   0  0  0  0  0  4           0  0  0
    1.3844    0.0000   -0.0000 C   0  0  0  0  0  4           0  0  0
    1.6329    0.9661   -4.6616 C   0  0  0  0  0  4           0  0  0
   -1.4020   -1.1464    3.4098 C   0  0  2  0  0  4           0  0  0
   -1.5161    1.2593    3.3178 C   0  0  1  0  0  4           0  0  0
   -0.9072    0.0000    1.1438 C   0  0  1  0  0  4           0  0  0
   -1.2693    0.1465    5.4830 C   0  0  0  0  0  4           0  0  0
   -0.7054   -1.2344    2.0362 C   0  0  0  0  0  4           0  0  0
   -0.8191    1.3090    1.9430 C   0  0  0  0  0  4           0  0  0
   -2.9335   -1.2900    3.3344 C   0  0  0  0  0  4           0  0  0
   -3.0541    1.2501    3.2292 C   0  0  0  0  0  4           0  0  0
   -3.6592   -0.0731    2.7671 C   0  0  0  0  0  4           0  0  0
  1 13  2  0     0  0
  2  3  1  0     0  0
  2  6  1  0     0  0
  2 14  1  0     0  0
  3  7  2  0     0  0
  4 15  1  0     0  0
  4 16  1  0     0  0
  4 18  1  0     0  0
  5 13  1  0     0  0
  5 17  1  0     0  0
  6  8  1  0     0  0
  6  9  2  0     0  0
  7  8  1  0     0  0
  7 13  1  0     0  0
  8 10  2  0     0  0
  9 11  1  0     0  0
 10 12  1  0     0  0
 11 12  2  0     0  0
 15 19  1  0     0  0
 15 21  1  0     0  0
 16 20  1  0     0  0
 16 22  1  0     0  0
 17 19  1  0     0  0
 17 20  1  0     0  0
 21 23  1  0     0  0
 22 23  1  0     0  0
M  END
> <standard_type>
pIC50

> <# Confs.>
25

> <canonical_smiles>
O=C(N[C@@H]1C[C@@H]2CCC[C@H](C1)N2C)C(C3=CC=CC=C34)=NN4C

> <standard_relation>
=

> <Publication_ID>
nan

> <predicted_activity_value>
nan

> <actual_activity_value>
-0.5717088318086876

> <Compound>
Granisetron

> <standard_units>
uM

> hash
616763807710810339

$$$$
22
XXILIB    08252103503D 0   0.00000     0.00000

 23 26  0     1  0            999 V2000
    2.0744   -0.0000    1.0166 O   0  0  0  0  0  2           0  0  0
    2.0994   -0.4416   -3.3987 N   0  0  0  0  0  3           0  0  0
    1.3113   -0.5898   -2.3225 N   0  0  0  0  0  3           0  0  0
   -0.9787    0.1054    4.0535 N   0  0  1  0  0  3           0  0  0
    0.0000    0.0000    0.0000 N   0  0  0  0  0  3           0  0  0
    3.2599    0.2415   -3.1522 C   0  0  0  0  0  4           0  0  0
    1.9839    0.0018   -1.3247 C   0  0  0  0  0  4           0  0  0
    3.2201    0.5483   -1.7915 C   0  0  0  0  0  4           0  0  0
    4.3254    0.6169   -3.9819 C   0  0  0  0  0  4           0  0  0
    4.2993    1.2633   -1.2315 C   0  0  0  0  0  4           0  0  0
    5.3818    1.3237   -3.4027 C   0  0  0  0  0  4           0  0  0
    5.3708    1.6430   -2.0484 C   0  0  0  0  0  4           0  0  0
    1.3844   -0.0000   -0.0000 C   0  0  0  0  0  4           0  0  0
    1.6481   -0.9827   -4.6573 C   0  0  0  0  0  4           0  0  0
   -1.4020   -1.1464    3.4098 C   0  0  2  0  0  4           0  0  0
   -1.5161    1.2593    3.3178 C   0  0  1  0  0  4           0  0  0
   -0.9072    0.0000    1.1438 C   0  0  1  0  0  4           0  0  0
   -1.2693    0.1465    5.4830 C   0  0  0  0  0  4           0  0  0
   -0.7054   -1.2344    2.0362 C   0  0  0  0  0  4           0  0  0
   -0.8191    1.3090    1.9430 C   0  0  0  0  0  4           0  0  0
   -2.9335   -1.2900    3.3344 C   0  0  0  0  0  4           0  0  0
   -3.0541    1.2501    3.2292 C   0  0  0  0  0  4           0  0  0
   -3.6592   -0.0731    2.7671 C   0  0  0  0  0  4           0  0  0
  1 13  2  0     0  0
  2  3  1  0     0  0
  2  6  1  0     0  0
  2 14  1  0     0  0
  3  7  2  0     0  0
  4 15  1  0     0  0
  4 16  1  0     0  0
  4 18  1  0     0  0
  5 13  1  0     0  0
  5 17  1  0     0  0
  6  8  1  0     0  0
  6  9  2  0     0  0
  7  8  1  0     0  0
  7 13  1  0     0  0
  8 10  2  0     0  0
  9 11  1  0     0  0
 10 12  1  0     0  0
 11 12  2  0     0  0
 15 19  1  0     0  0
 15 21  1  0     0  0
 16 20  1  0     0  0
 16 22  1  0     0  0
 17 19  1  0     0  0
 17 20  1  0     0  0
 21 23  1  0     0  0
 22 23  1  0     0  0
M  END
> <standard_type>
pIC50

> <# Confs.>
25

> <canonical_smiles>
O=C(N[C@@H]1C[C@@H]2CCC[C@H](C1)N2C)C(C3=CC=CC=C34)=NN4C

> <standard_relation>
=

> <Publication_ID>
nan

> <predicted_activity_value>
nan

> <actual_activity_value>
-0.5717088318086876

> <Compound>
Granisetron

> <standard_units>
uM

> hash
616763807710810339

$$$$
22
XXILIB    08252103503D 0   0.00000     0.00000

 23 26  0     1  0            999 V2000
    2.0744   -0.0000    1.0166 O   0  0  0  0  0  2           0  0  0
    1.9877   -0.0070   -3.4487 N   0  0  0  0  0  3           0  0  0
    1.1661    0.0016   -2.3874 N   0  0  0  0  0  3           0  0  0
   -2.6919    0.1115    3.1137 N   0  0  1  0  0  3           0  0  0
    0.0000    0.0000    0.0000 N   0  0  0  0  0  3           0  0  0
    3.3180    0.0052   -3.1262 C   0  0  0  0  0  4           0  0  0
    1.9839    0.0018   -1.3247 C   0  0  0  0  0  4           0  0  0
    3.3548    0.0083   -1.7312 C   0  0  0  0  0  4           0  0  0
    4.4774    0.0162   -3.9139 C   0  0  0  0  0  4           0  0  0
    4.6120    0.0205   -1.0917 C   0  0  0  0  0  4           0  0  0
    5.7095    0.0277   -3.2561 C   0  0  0  0  0  4           0  0  0
    5.7779    0.0298   -1.8663 C   0  0  0  0  0  4           0  0  0
    1.3844    0.0000    0.0000 C   0  0  0  0  0  4           0  0  0
    1.4026   -0.0104   -4.7671 C   0  0  0  0  0  4           0  0  0
   -3.3056   -0.5265    1.9379 C   0  0  2  0  0  4           0  0  0
   -2.2567    1.4762    2.7748 C   0  0  1  0  0  4           0  0  0
   -0.9072    0.0000    1.1438 C   0  0  1  0  0  4           0  0  0
   -3.5166    0.0414    4.3138 C   0  0  0  0  0  4           0  0  0
   -2.2349   -0.7119    0.8335 C   0  0  0  0  0  4           0  0  0
   -1.1242    1.4102    1.7189 C   0  0  0  0  0  4           0  0  0
   -4.5228    0.2628    1.4119 C   0  0  0  0  0  4           0  0  0
   -3.4249    2.3594    2.2880 C   0  0  0  0  0  4           0  0  0
   -4.1931    1.7274    1.1290 C   0  0  0  0  0  4           0  0  0
  1 13  2  0     0  0
  2  3  1  0     0  0
  2  6  1  0     0  0
  2 14  1  0     0  0
  3  7  2  0     0  0
  4 15  1  0     0  0
  4 16  1  0     0  0
  4 18  1  0     0  0
  5 13  1  0     0  0
  5 17  1  0     0  0
  6  8  1  0     0  0
  6  9  2  0     0  0
  7  8  1  0     0  0
  7 13  1  0     0  0
  8 10  2  0     0  0
  9 11  1  0     0  0
 10 12  1  0     0  0
 11 12  2  0     0  0
 15 19  1  0     0  0
 15 21  1  0     0  0
 16 20  1  0     0  0
 16 22  1  0     0  0
 17 19  1  0     0  0
 17 20  1  0     0  0
 21 23  1  0     0  0
 22 23  1  0     0  0
M  END
> <standard_type>
pIC50

> <# Confs.>
25

> <canonical_smiles>
O=C(N[C@@H]1C[C@@H]2CCC[C@H](C1)N2C)C(C3=CC=CC=C34)=NN4C

> <standard_relation>
=

> <Publication_ID>
nan

> <predicted_activity_value>
nan

> <actual_activity_value>
-0.5717088318086876

> <Compound>
Granisetron

> <standard_units>
uM

> hash
616763807710810339

$$$$
22
XXILIB    08252103503D 0   0.00000     0.00000

 23 26  0     1  0            999 V2000
    2.0744   -0.0000    1.0166 O   0  0  0  0  0  2           0  0  0
    1.9877   -0.0070   -3.4487 N   0  0  0  0  0  3           0  0  0
    1.1661    0.0016   -2.3874 N   0  0  0  0  0  3           0  0  0
   -2.6993   -0.0950    3.1078 N   0  0  1  0  0  3           0  0  0
    0.0000    0.0000    0.0000 N   0  0  0  0  0  3           0  0  0
    3.3180    0.0052   -3.1262 C   0  0  0  0  0  4           0  0  0
    1.9839    0.0018   -1.3247 C   0  0  0  0  0  4           0  0  0
    3.3548    0.0083   -1.7312 C   0  0  0  0  0  4           0  0  0
    4.4774    0.0162   -3.9139 C   0  0  0  0  0  4           0  0  0
    4.6120    0.0205   -1.0917 C   0  0  0  0  0  4           0  0  0
    5.7095    0.0277   -3.2561 C   0  0  0  0  0  4           0  0  0
    5.7779    0.0298   -1.8663 C   0  0  0  0  0  4           0  0  0
    1.3844    0.0000    0.0000 C   0  0  0  0  0  4           0  0  0
    1.4026   -0.0104   -4.7671 C   0  0  0  0  0  4           0  0  0
   -2.4056   -1.4632    2.6518 C   0  0  2  0  0  4           0  0  0
   -3.2412    0.7002    1.9939 C   0  0  1  0  0  4           0  0  0
   -0.9072    0.0000    1.1438 C   0  0  1  0  0  4           0  0  0
   -3.5155   -0.0437    4.3146 C   0  0  0  0  0  4           0  0  0
   -1.2688   -1.4237    1.5997 C   0  0  0  0  0  4           0  0  0
   -2.1544    0.8674    0.9018 C   0  0  0  0  0  4           0  0  0
   -3.6567   -2.1774    2.0989 C   0  0  0  0  0  4           0  0  0
   -4.5316    0.0873    1.4102 C   0  0  0  0  0  4           0  0  0
   -4.3531   -1.3738    1.0021 C   0  0  0  0  0  4           0  0  0
  1 13  2  0     0  0
  2  3  1  0     0  0
  2  6  1  0     0  0
  2 14  1  0     0  0
  3  7  2  0     0  0
  4 15  1  0     0  0
  4 16  1  0     0  0
  4 18  1  0     0  0
  5 13  1  0     0  0
  5 17  1  0     0  0
  6  8  1  0     0  0
  6  9  2  0     0  0
  7  8  1  0     0  0
  7 13  1  0     0  0
  8 10  2  0     0  0
  9 11  1  0     0  0
 10 12  1  0     0  0
 11 12  2  0     0  0
 15 19  1  0     0  0
 15 21  1  0     0  0
 16 20  1  0     0  0
 16 22  1  0     0  0
 17 19  1  0     0  0
 17 20  1  0     0  0
 21 23  1  0     0  0
 22 23  1  0     0  0
M  END
> <standard_type>
pIC50

> <# Confs.>
25

> <canonical_smiles>
O=C(N[C@@H]1C[C@@H]2CCC[C@H](C1)N2C)C(C3=CC=CC=C34)=NN4C

> <standard_relation>
=

> <Publication_ID>
nan

> <predicted_activity_value>
nan

> <actual_activity_value>
-0.5717088318086876

> <Compound>
Granisetron

> <standard_units>
uM

> hash
616763807710810339

$$$$
22
XXILIB    08252103503D 0   0.00000     0.00000

 23 26  0     1  0            999 V2000
    2.0744   -0.0000    1.0166 O   0  0  0  0  0  2           0  0  0
    2.0994   -0.4416   -3.3987 N   0  0  0  0  0  3           0  0  0
    1.3113   -0.5898   -2.3225 N   0  0  0  0  0  3           0  0  0
   -2.5074    1.7148    2.9894 N   0  0  1  0  0  3           0  0  0
    0.0000    0.0000    0.0000 N   0  0  0  0  0  3           0  0  0
    3.2599    0.2415   -3.1522 C   0  0  0  0  0  4           0  0  0
    1.9839    0.0018   -1.3247 C   0  0  0  0  0  4           0  0  0
    3.2201    0.5483   -1.7915 C   0  0  0  0  0  4           0  0  0
    4.3254    0.6169   -3.9819 C   0  0  0  0  0  4           0  0  0
    4.2993    1.2633   -1.2315 C   0  0  0  0  0  4           0  0  0
    5.3818    1.3237   -3.4027 C   0  0  0  0  0  4           0  0  0
    5.3708    1.6430   -2.0484 C   0  0  0  0  0  4           0  0  0
    1.3844   -0.0000   -0.0000 C   0  0  0  0  0  4           0  0  0
    1.6481   -0.9827   -4.6573 C   0  0  0  0  0  4           0  0  0
   -1.3029    1.0311    3.4819 C   0  0  2  0  0  4           0  0  0
   -3.1873    0.8830    1.9860 C   0  0  1  0  0  4           0  0  0
   -0.9072    0.0000    1.1438 C   0  0  1  0  0  4           0  0  0
   -2.2532    3.0773    2.5340 C   0  0  0  0  0  4           0  0  0
   -0.2961    0.7123    2.3586 C   0  0  0  0  0  4           0  0  0
   -2.2904    0.5549    0.7756 C   0  0  0  0  0  4           0  0  0
   -1.7533   -0.2095    4.2778 C   0  0  0  0  0  4           0  0  0
   -3.7408   -0.3652    2.7007 C   0  0  0  0  0  4           0  0  0
   -2.7111   -1.1336    3.5275 C   0  0  0  0  0  4           0  0  0
  1 13  2  0     0  0
  2  3  1  0     0  0
  2  6  1  0     0  0
  2 14  1  0     0  0
  3  7  2  0     0  0
  4 15  1  0     0  0
  4 16  1  0     0  0
  4 18  1  0     0  0
  5 13  1  0     0  0
  5 17  1  0     0  0
  6  8  1  0     0  0
  6  9  2  0     0  0
  7  8  1  0     0  0
  7 13  1  0     0  0
  8 10  2  0     0  0
  9 11  1  0     0  0
 10 12  1  0     0  0
 11 12  2  0     0  0
 15 19  1  0     0  0
 15 21  1  0     0  0
 16 20  1  0     0  0
 16 22  1  0     0  0
 17 19  1  0     0  0
 17 20  1  0     0  0
 21 23  1  0     0  0
 22 23  1  0     0  0
M  END
> <standard_type>
pIC50

> <# Confs.>
25

> <canonical_smiles>
O=C(N[C@@H]1C[C@@H]2CCC[C@H](C1)N2C)C(C3=CC=CC=C34)=NN4C

> <standard_relation>
=

> <Publication_ID>
nan

> <predicted_activity_value>
nan

> <actual_activity_value>
-0.5717088318086876

> <Compound>
Granisetron

> <standard_units>
uM

> hash
616763807710810339

$$$$
22
XXILIB    08252103503D 0   0.00000     0.00000

 23 26  0     1  0            999 V2000
    2.0744   -0.0000    1.0166 O   0  0  0  0  0  2           0  0  0
    2.0994   -0.4416   -3.3987 N   0  0  0  0  0  3           0  0  0
    1.3113   -0.5898   -2.3225 N   0  0  0  0  0  3           0  0  0
   -1.2184   -0.7649    4.0117 N   0  0  1  0  0  3           0  0  0
    0.0000    0.0000    0.0000 N   0  0  0  0  0  3           0  0  0
    3.2599    0.2415   -3.1522 C   0  0  0  0  0  4           0  0  0
    1.9839    0.0018   -1.3247 C   0  0  0  0  0  4           0  0  0
    3.2201    0.5483   -1.7915 C   0  0  0  0  0  4           0  0  0
    4.3254    0.6169   -3.9819 C   0  0  0  0  0  4           0  0  0
    4.2993    1.2633   -1.2315 C   0  0  0  0  0  4           0  0  0
    5.3818    1.3237   -3.4027 C   0  0  0  0  0  4           0  0  0
    5.3708    1.6430   -2.0484 C   0  0  0  0  0  4           0  0  0
    1.3844   -0.0000   -0.0000 C   0  0  0  0  0  4           0  0  0
    1.6481   -0.9827   -4.6573 C   0  0  0  0  0  4           0  0  0
   -1.9465   -1.5054    2.9714 C   0  0  2  0  0  4           0  0  0
   -1.1038    0.6523    3.6385 C   0  0  1  0  0  4           0  0  0
   -0.9072    0.0000    1.1438 C   0  0  1  0  0  4           0  0  0
    0.0588   -1.3735    4.3678 C   0  0  0  0  0  4           0  0  0
   -1.2627   -1.4246    1.5920 C   0  0  0  0  0  4           0  0  0
   -0.3714    0.8592    2.2976 C   0  0  0  0  0  4           0  0  0
   -3.4052   -1.0078    2.9675 C   0  0  0  0  0  4           0  0  0
   -2.5166    1.2673    3.6717 C   0  0  0  0  0  4           0  0  0
   -3.5602    0.5079    2.8540 C   0  0  0  0  0  4           0  0  0
  1 13  2  0     0  0
  2  3  1  0     0  0
  2  6  1  0     0  0
  2 14  1  0     0  0
  3  7  2  0     0  0
  4 15  1  0     0  0
  4 16  1  0     0  0
  4 18  1  0     0  0
  5 13  1  0     0  0
  5 17  1  0     0  0
  6  8  1  0     0  0
  6  9  2  0     0  0
  7  8  1  0     0  0
  7 13  1  0     0  0
  8 10  2  0     0  0
  9 11  1  0     0  0
 10 12  1  0     0  0
 11 12  2  0     0  0
 15 19  1  0     0  0
 15 21  1  0     0  0
 16 20  1  0     0  0
 16 22  1  0     0  0
 17 19  1  0     0  0
 17 20  1  0     0  0
 21 23  1  0     0  0
 22 23  1  0     0  0
M  END
> <standard_type>
pIC50

> <# Confs.>
25

> <canonical_smiles>
O=C(N[C@@H]1C[C@@H]2CCC[C@H](C1)N2C)C(C3=CC=CC=C34)=NN4C

> <standard_relation>
=

> <Publication_ID>
nan

> <predicted_activity_value>
nan

> <actual_activity_value>
-0.5717088318086876

> <Compound>
Granisetron

> <standard_units>
uM

> hash
616763807710810339

$$$$
22
XXILIB    08252103503D 0   0.00000     0.00000

 23 26  0     1  0            999 V2000
    2.0744    0.0000    1.0166 O   0  0  0  0  0  2           0  0  0
    2.0888    0.4306   -3.4023 N   0  0  0  0  0  3           0  0  0
    1.3099    0.5933   -2.3216 N   0  0  0  0  0  3           0  0  0
   -2.3400   -1.7148    3.1221 N   0  0  1  0  0  3           0  0  0
    0.0000    0.0000    0.0000 N   0  0  0  0  0  3           0  0  0
    3.2608   -0.2313   -3.1524 C   0  0  0  0  0  4           0  0  0
    1.9839    0.0018   -1.3247 C   0  0  0  0  0  4           0  0  0
    3.2256   -0.5332   -1.7904 C   0  0  0  0  0  4           0  0  0
    4.3354   -0.5874   -3.9790 C   0  0  0  0  0  4           0  0  0
    4.3167   -1.2271   -1.2269 C   0  0  0  0  0  4           0  0  0
    5.4030   -1.2742   -3.3965 C   0  0  0  0  0  4           0  0  0
    5.3957   -1.5903   -2.0414 C   0  0  0  0  0  4           0  0  0
    1.3844    0.0000   -0.0000 C   0  0  0  0  0  4           0  0  0
    1.6329    0.9661   -4.6616 C   0  0  0  0  0  4           0  0  0
   -3.0938   -1.0311    2.0613 C   0  0  2  0  0  4           0  0  0
   -1.2082   -0.8830    3.5557 C   0  0  1  0  0  4           0  0  0
   -0.9072    0.0000    1.1438 C   0  0  1  0  0  4           0  0  0
   -1.9545   -3.0773    2.7710 C   0  0  0  0  0  4           0  0  0
   -2.2293   -0.7123    0.8253 C   0  0  0  0  0  4           0  0  0
   -0.2338   -0.5549    2.4068 C   0  0  0  0  0  4           0  0  0
   -3.7663    0.2095    2.6811 C   0  0  0  0  0  4           0  0  0
   -1.7782    0.3652    4.2574 C   0  0  0  0  0  4           0  0  0
   -2.8177    1.1336    3.4430 C   0  0  0  0  0  4           0  0  0
  1 13  2  0     0  0
  2  3  1  0     0  0
  2  6  1  0     0  0
  2 14  1  0     0  0
  3  7  2  0     0  0
  4 15  1  0     0  0
  4 16  1  0     0  0
  4 18  1  0     0  0
  5 13  1  0     0  0
  5 17  1  0     0  0
  6  8  1  0     0  0
  6  9  2  0     0  0
  7  8  1  0     0  0
  7 13  1  0     0  0
  8 10  2  0     0  0
  9 11  1  0     0  0
 10 12  1  0     0  0
 11 12  2  0     0  0
 15 19  1  0     0  0
 15 21  1  0     0  0
 16 20  1  0     0  0
 16 22  1  0     0  0
 17 19  1  0     0  0
 17 20  1  0     0  0
 21 23  1  0     0  0
 22 23  1  0     0  0
M  END
> <standard_type>
pIC50

> <# Confs.>
25

> <canonical_smiles>
O=C(N[C@@H]1C[C@@H]2CCC[C@H](C1)N2C)C(C3=CC=CC=C34)=NN4C

> <standard_relation>
=

> <Publication_ID>
nan

> <predicted_activity_value>
nan

> <actual_activity_value>
-0.5717088318086876

> <Compound>
Granisetron

> <standard_units>
uM

> hash
616763807710810339

$$$$
22
XXILIB    08252103503D 0   0.00000     0.00000

 23 26  0     1  0            999 V2000
    2.0744   -0.0000    1.0166 O   0  0  0  0  0  2           0  0  0
    1.9877   -0.0070   -3.4487 N   0  0  0  0  0  3           0  0  0
    1.1661    0.0016   -2.3874 N   0  0  0  0  0  3           0  0  0
   -2.5629   -0.2065    3.2160 N   0  0  1  0  0  3           0  0  0
    0.0000    0.0000    0.0000 N   0  0  0  0  0  3           0  0  0
    3.3180    0.0052   -3.1262 C   0  0  0  0  0  4           0  0  0
    1.9839    0.0018   -1.3247 C   0  0  0  0  0  4           0  0  0
    3.3548    0.0083   -1.7312 C   0  0  0  0  0  4           0  0  0
    4.4774    0.0162   -3.9139 C   0  0  0  0  0  4           0  0  0
    4.6120    0.0205   -1.0917 C   0  0  0  0  0  4           0  0  0
    5.7095    0.0277   -3.2561 C   0  0  0  0  0  4           0  0  0
    5.7779    0.0298   -1.8663 C   0  0  0  0  0  4           0  0  0
    1.3844    0.0000    0.0000 C   0  0  0  0  0  4           0  0  0
    1.4026   -0.0104   -4.7671 C   0  0  0  0  0  4           0  0  0
   -1.3200   -0.9367    3.5128 C   0  0  2  0  0  4           0  0  0
   -3.2069   -0.7760    2.0211 C   0  0  1  0  0  4           0  0  0
   -0.9072    0.0000    1.1438 C   0  0  1  0  0  4           0  0  0
   -3.4572   -0.0852    4.3609 C   0  0  0  0  0  4           0  0  0
   -0.3028   -0.7119    2.3659 C   0  0  0  0  0  4           0  0  0
   -2.3013   -0.5428    0.7853 C   0  0  0  0  0  4           0  0  0
   -1.5680   -2.4403    3.7556 C   0  0  0  0  0  4           0  0  0
   -3.5433   -2.2721    2.1941 C   0  0  0  0  0  4           0  0  0
   -2.3289   -3.1012    2.6077 C   0  0  0  0  0  4           0  0  0
  1 13  2  0     0  0
  2  3  1  0     0  0
  2  6  1  0     0  0
  2 14  1  0     0  0
  3  7  2  0     0  0
  4 15  1  0     0  0
  4 16  1  0     0  0
  4 18  1  0     0  0
  5 13  1  0     0  0
  5 17  1  0     0  0
  6  8  1  0     0  0
  6  9  2  0     0  0
  7  8  1  0     0  0
  7 13  1  0     0  0
  8 10  2  0     0  0
  9 11  1  0     0  0
 10 12  1  0     0  0
 11 12  2  0     0  0
 15 19  1  0     0  0
 15 21  1  0     0  0
 16 20  1  0     0  0
 16 22  1  0     0  0
 17 19  1  0     0  0
 17 20  1  0     0  0
 21 23  1  0     0  0
 22 23  1  0     0  0
M  END
> <standard_type>
pIC50

> <# Confs.>
25

> <canonical_smiles>
O=C(N[C@@H]1C[C@@H]2CCC[C@H](C1)N2C)C(C3=CC=CC=C34)=NN4C

> <standard_relation>
=

> <Publication_ID>
nan

> <predicted_activity_value>
nan

> <actual_activity_value>
-0.5717088318086876

> <Compound>
Granisetron

> <standard_units>
uM

> hash
616763807710810339

$$$$
22
XXILIB    08252103503D 0   0.00000     0.00000

 23 26  0     1  0            999 V2000
    2.0744    0.0000    1.0166 O   0  0  0  0  0  2           0  0  0
    2.0888    0.4306   -3.4023 N   0  0  0  0  0  3           0  0  0
    1.3099    0.5933   -2.3216 N   0  0  0  0  0  3           0  0  0
   -1.3021    0.9499    3.9454 N   0  0  1  0  0  3           0  0  0
    0.0000    0.0000    0.0000 N   0  0  0  0  0  3           0  0  0
    3.2608   -0.2313   -3.1524 C   0  0  0  0  0  4           0  0  0
    1.9839    0.0018   -1.3247 C   0  0  0  0  0  4           0  0  0
    3.2256   -0.5332   -1.7904 C   0  0  0  0  0  4           0  0  0
    4.3354   -0.5874   -3.9790 C   0  0  0  0  0  4           0  0  0
    4.3167   -1.2271   -1.2269 C   0  0  0  0  0  4           0  0  0
    5.4030   -1.2742   -3.3965 C   0  0  0  0  0  4           0  0  0
    5.3957   -1.5903   -2.0414 C   0  0  0  0  0  4           0  0  0
    1.3844    0.0000   -0.0000 C   0  0  0  0  0  4           0  0  0
    1.6329    0.9661   -4.6616 C   0  0  0  0  0  4           0  0  0
   -1.0510   -0.4743    3.6817 C   0  0  2  0  0  4           0  0  0
   -2.0934    1.5353    2.8536 C   0  0  1  0  0  4           0  0  0
   -0.9072    0.0000    1.1438 C   0  0  1  0  0  4           0  0  0
   -0.0906    1.7037    4.2494 C   0  0  0  0  0  4           0  0  0
   -0.2961   -0.7123    2.3586 C   0  0  0  0  0  4           0  0  0
   -1.3997    1.4141    1.4820 C   0  0  0  0  0  4           0  0  0
   -2.3987   -1.2173    3.7659 C   0  0  0  0  0  4           0  0  0
   -3.4979    0.9021    2.8933 C   0  0  0  0  0  4           0  0  0
   -3.5069   -0.6257    2.8963 C   0  0  0  0  0  4           0  0  0
  1 13  2  0     0  0
  2  3  1  0     0  0
  2  6  1  0     0  0
  2 14  1  0     0  0
  3  7  2  0     0  0
  4 15  1  0     0  0
  4 16  1  0     0  0
  4 18  1  0     0  0
  5 13  1  0     0  0
  5 17  1  0     0  0
  6  8  1  0     0  0
  6  9  2  0     0  0
  7  8  1  0     0  0
  7 13  1  0     0  0
  8 10  2  0     0  0
  9 11  1  0     0  0
 10 12  1  0     0  0
 11 12  2  0     0  0
 15 19  1  0     0  0
 15 21  1  0     0  0
 16 20  1  0     0  0
 16 22  1  0     0  0
 17 19  1  0     0  0
 17 20  1  0     0  0
 21 23  1  0     0  0
 22 23  1  0     0  0
M  END
> <standard_type>
pIC50

> <# Confs.>
25

> <canonical_smiles>
O=C(N[C@@H]1C[C@@H]2CCC[C@H](C1)N2C)C(C3=CC=CC=C34)=NN4C

> <standard_relation>
=

> <Publication_ID>
nan

> <predicted_activity_value>
nan

> <actual_activity_value>
-0.5717088318086876

> <Compound>
Granisetron

> <standard_units>
uM

> hash
616763807710810339

$$$$
22
XXILIB    08252103503D 0   0.00000     0.00000

 23 26  0     1  0            999 V2000
    2.0744   -0.0000    1.0166 O   0  0  0  0  0  2           0  0  0
    1.9877   -0.0070   -3.4487 N   0  0  0  0  0  3           0  0  0
    1.1661    0.0016   -2.3874 N   0  0  0  0  0  3           0  0  0
   -2.5481    0.2065    3.2278 N   0  0  1  0  0  3           0  0  0
    0.0000    0.0000   -0.0000 N   0  0  0  0  0  3           0  0  0
    3.3180    0.0052   -3.1262 C   0  0  0  0  0  4           0  0  0
    1.9839    0.0018   -1.3247 C   0  0  0  0  0  4           0  0  0
    3.3548    0.0083   -1.7312 C   0  0  0  0  0  4           0  0  0
    4.4774    0.0162   -3.9139 C   0  0  0  0  0  4           0  0  0
    4.6120    0.0205   -1.0917 C   0  0  0  0  0  4           0  0  0
    5.7095    0.0277   -3.2561 C   0  0  0  0  0  4           0  0  0
    5.7779    0.0298   -1.8663 C   0  0  0  0  0  4           0  0  0
    1.3844    0.0000    0.0000 C   0  0  0  0  0  4           0  0  0
    1.4026   -0.0104   -4.7671 C   0  0  0  0  0  4           0  0  0
   -3.1201    0.9367    2.0851 C   0  0  2  0  0  4           0  0  0
   -1.2380    0.7760    3.5828 C   0  0  1  0  0  4           0  0  0
   -0.9072    0.0000    1.1438 C   0  0  1  0  0  4           0  0  0
   -3.4593    0.0852    4.3592 C   0  0  0  0  0  4           0  0  0
   -2.2349    0.7119    0.8335 C   0  0  0  0  0  4           0  0  0
   -0.2408    0.5428    2.4196 C   0  0  0  0  0  4           0  0  0
   -3.3000    2.4403    2.3818 C   0  0  0  0  0  4           0  0  0
   -1.3298    2.2721    3.9498 C   0  0  0  0  0  4           0  0  0
   -2.0090    3.1012    2.8614 C   0  0  0  0  0  4           0  0  0
  1 13  2  0     0  0
  2  3  1  0     0  0
  2  6  1  0     0  0
  2 14  1  0     0  0
  3  7  2  0     0  0
  4 15  1  0     0  0
  4 16  1  0     0  0
  4 18  1  0     0  0
  5 13  1  0     0  0
  5 17  1  0     0  0
  6  8  1  0     0  0
  6  9  2  0     0  0
  7  8  1  0     0  0
  7 13  1  0     0  0
  8 10  2  0     0  0
  9 11  1  0     0  0
 10 12  1  0     0  0
 11 12  2  0     0  0
 15 19  1  0     0  0
 15 21  1  0     0  0
 16 20  1  0     0  0
 16 22  1  0     0  0
 17 19  1  0     0  0
 17 20  1  0     0  0
 21 23  1  0     0  0
 22 23  1  0     0  0
M  END
> <standard_type>
pIC50

> <# Confs.>
25

> <canonical_smiles>
O=C(N[C@@H]1C[C@@H]2CCC[C@H](C1)N2C)C(C3=CC=CC=C34)=NN4C

> <standard_relation>
=

> <Publication_ID>
nan

> <predicted_activity_value>
nan

> <actual_activity_value>
-0.5717088318086876

> <Compound>
Granisetron

> <standard_units>
uM

> hash
616763807710810339

$$$$
22
XXILIB    08252103503D 0   0.00000     0.00000

 23 26  0     1  0            999 V2000
    2.0744   -0.0000    1.0166 O   0  0  0  0  0  2           0  0  0
    2.0994   -0.4416   -3.3987 N   0  0  0  0  0  3           0  0  0
    1.3113   -0.5898   -2.3225 N   0  0  0  0  0  3           0  0  0
   -1.7366    1.5702    3.4523 N   0  0  1  0  0  3           0  0  0
    0.0000    0.0000    0.0000 N   0  0  0  0  0  3           0  0  0
    3.2599    0.2415   -3.1522 C   0  0  0  0  0  4           0  0  0
    1.9839    0.0018   -1.3247 C   0  0  0  0  0  4           0  0  0
    3.2201    0.5483   -1.7915 C   0  0  0  0  0  4           0  0  0
    4.3254    0.6169   -3.9819 C   0  0  0  0  0  4           0  0  0
    4.2993    1.2633   -1.2315 C   0  0  0  0  0  4           0  0  0
    5.3818    1.3237   -3.4027 C   0  0  0  0  0  4           0  0  0
    5.3708    1.6430   -2.0484 C   0  0  0  0  0  4           0  0  0
    1.3844   -0.0000   -0.0000 C   0  0  0  0  0  4           0  0  0
    1.6481   -0.9827   -4.6573 C   0  0  0  0  0  4           0  0  0
   -1.0239    0.3106    3.7096 C   0  0  2  0  0  4           0  0  0
   -2.7129    1.3865    2.3686 C   0  0  1  0  0  4           0  0  0
   -0.9072    0.0000    1.1438 C   0  0  1  0  0  4           0  0  0
   -2.3139    2.1628    4.6545 C   0  0  0  0  0  4           0  0  0
   -0.1470    0.0000    2.4791 C   0  0  0  0  0  4           0  0  0
   -1.9289    1.1444    1.0628 C   0  0  0  0  0  4           0  0  0
   -1.9696   -0.8409    4.0990 C   0  0  0  0  0  4           0  0  0
   -3.7511    0.2907    2.6764 C   0  0  0  0  0  4           0  0  0
   -3.1601   -1.0301    3.1630 C   0  0  0  0  0  4           0  0  0
  1 13  2  0     0  0
  2  3  1  0     0  0
  2  6  1  0     0  0
  2 14  1  0     0  0
  3  7  2  0     0  0
  4 15  1  0     0  0
  4 16  1  0     0  0
  4 18  1  0     0  0
  5 13  1  0     0  0
  5 17  1  0     0  0
  6  8  1  0     0  0
  6  9  2  0     0  0
  7  8  1  0     0  0
  7 13  1  0     0  0
  8 10  2  0     0  0
  9 11  1  0     0  0
 10 12  1  0     0  0
 11 12  2  0     0  0
 15 19  1  0     0  0
 15 21  1  0     0  0
 16 20  1  0     0  0
 16 22  1  0     0  0
 17 19  1  0     0  0
 17 20  1  0     0  0
 21 23  1  0     0  0
 22 23  1  0     0  0
M  END
> <standard_type>
pIC50

> <# Confs.>
25

> <canonical_smiles>
O=C(N[C@@H]1C[C@@H]2CCC[C@H](C1)N2C)C(C3=CC=CC=C34)=NN4C

> <standard_relation>
=

> <Publication_ID>
nan

> <predicted_activity_value>
nan

> <actual_activity_value>
-0.5717088318086876

> <Compound>
Granisetron

> <standard_units>
uM

> hash
616763807710810339

$$$$
22
XXILIB    08252103503D 0   0.00000     0.00000

 23 26  0     1  0            999 V2000
    2.0744    0.0000    1.0166 O   0  0  0  0  0  2           0  0  0
    2.0888    0.4306   -3.4023 N   0  0  0  0  0  3           0  0  0
    1.3099    0.5933   -2.3216 N   0  0  0  0  0  3           0  0  0
   -2.4117    0.0950    3.3360 N   0  0  1  0  0  3           0  0  0
    0.0000    0.0000    0.0000 N   0  0  0  0  0  3           0  0  0
    3.2608   -0.2313   -3.1524 C   0  0  0  0  0  4           0  0  0
    1.9839    0.0018   -1.3247 C   0  0  0  0  0  4           0  0  0
    3.2256   -0.5332   -1.7904 C   0  0  0  0  0  4           0  0  0
    4.3354   -0.5874   -3.9790 C   0  0  0  0  0  4           0  0  0
    4.3167   -1.2271   -1.2269 C   0  0  0  0  0  4           0  0  0
    5.4030   -1.2742   -3.3965 C   0  0  0  0  0  4           0  0  0
    5.3957   -1.5903   -2.0414 C   0  0  0  0  0  4           0  0  0
    1.3844    0.0000   -0.0000 C   0  0  0  0  0  4           0  0  0
    1.6329    0.9661   -4.6616 C   0  0  0  0  0  4           0  0  0
   -2.0345    1.4632    2.9461 C   0  0  2  0  0  4           0  0  0
   -1.2037   -0.7002    3.6100 C   0  0  1  0  0  4           0  0  0
   -0.9072    0.0000    1.1438 C   0  0  1  0  0  4           0  0  0
   -3.4010    0.0437    4.4055 C   0  0  0  0  0  4           0  0  0
   -1.2688    1.4237    1.5997 C   0  0  0  0  0  4           0  0  0
   -0.3876   -0.8674    2.3031 C   0  0  0  0  0  4           0  0  0
   -1.2113    2.1774    4.0385 C   0  0  0  0  0  4           0  0  0
   -0.3415   -0.0873    4.7336 C   0  0  0  0  0  4           0  0  0
    0.0152    1.3738    4.4669 C   0  0  0  0  0  4           0  0  0
  1 13  2  0     0  0
  2  3  1  0     0  0
  2  6  1  0     0  0
  2 14  1  0     0  0
  3  7  2  0     0  0
  4 15  1  0     0  0
  4 16  1  0     0  0
  4 18  1  0     0  0
  5 13  1  0     0  0
  5 17  1  0     0  0
  6  8  1  0     0  0
  6  9  2  0     0  0
  7  8  1  0     0  0
  7 13  1  0     0  0
  8 10  2  0     0  0
  9 11  1  0     0  0
 10 12  1  0     0  0
 11 12  2  0     0  0
 15 19  1  0     0  0
 15 21  1  0     0  0
 16 20  1  0     0  0
 16 22  1  0     0  0
 17 19  1  0     0  0
 17 20  1  0     0  0
 21 23  1  0     0  0
 22 23  1  0     0  0
M  END
> <standard_type>
pIC50

> <# Confs.>
25

> <canonical_smiles>
O=C(N[C@@H]1C[C@@H]2CCC[C@H](C1)N2C)C(C3=CC=CC=C34)=NN4C

> <standard_relation>
=

> <Publication_ID>
nan

> <predicted_activity_value>
nan

> <actual_activity_value>
-0.5717088318086876

> <Compound>
Granisetron

> <standard_units>
uM

> hash
616763807710810339

$$$$
22
XXILIB    08252103503D 0   0.00000     0.00000

 23 26  0     1  0            999 V2000
    2.0744    0.0000    1.0166 O   0  0  0  0  0  2           0  0  0
    2.0888    0.4306   -3.4023 N   0  0  0  0  0  3           0  0  0
    1.3099    0.5933   -2.3216 N   0  0  0  0  0  3           0  0  0
   -1.5935   -1.4647    3.5658 N   0  0  1  0  0  3           0  0  0
    0.0000    0.0000    0.0000 N   0  0  0  0  0  3           0  0  0
    3.2608   -0.2313   -3.1524 C   0  0  0  0  0  4           0  0  0
    1.9839    0.0018   -1.3247 C   0  0  0  0  0  4           0  0  0
    3.2256   -0.5332   -1.7904 C   0  0  0  0  0  4           0  0  0
    4.3354   -0.5874   -3.9790 C   0  0  0  0  0  4           0  0  0
    4.3167   -1.2271   -1.2269 C   0  0  0  0  0  4           0  0  0
    5.4030   -1.2742   -3.3965 C   0  0  0  0  0  4           0  0  0
    5.3957   -1.5903   -2.0414 C   0  0  0  0  0  4           0  0  0
    1.3844    0.0000   -0.0000 C   0  0  0  0  0  4           0  0  0
    1.6329    0.9661   -4.6616 C   0  0  0  0  0  4           0  0  0
   -2.5796   -1.4570    2.4757 C   0  0  2  0  0  4           0  0  0
   -1.0040   -0.1272    3.7240 C   0  0  1  0  0  4           0  0  0
   -0.9072    0.0000    1.1438 C   0  0  1  0  0  4           0  0  0
   -2.1151   -2.0164    4.8122 C   0  0  0  0  0  4           0  0  0
   -1.8221   -1.2344    1.1504 C   0  0  0  0  0  4           0  0  0
   -0.1525    0.1646    2.4717 C   0  0  0  0  0  4           0  0  0
   -3.7202   -0.4491    2.7105 C   0  0  0  0  0  4           0  0  0
   -2.0547    0.9594    4.0220 C   0  0  0  0  0  4           0  0  0
   -3.2593    0.9570    3.0843 C   0  0  0  0  0  4           0  0  0
  1 13  2  0     0  0
  2  3  1  0     0  0
  2  6  1  0     0  0
  2 14  1  0     0  0
  3  7  2  0     0  0
  4 15  1  0     0  0
  4 16  1  0     0  0
  4 18  1  0     0  0
  5 13  1  0     0  0
  5 17  1  0     0  0
  6  8  1  0     0  0
  6  9  2  0     0  0
  7  8  1  0     0  0
  7 13  1  0     0  0
  8 10  2  0     0  0
  9 11  1  0     0  0
 10 12  1  0     0  0
 11 12  2  0     0  0
 15 19  1  0     0  0
 15 21  1  0     0  0
 16 20  1  0     0  0
 16 22  1  0     0  0
 17 19  1  0     0  0
 17 20  1  0     0  0
 21 23  1  0     0  0
 22 23  1  0     0  0
M  END
> <standard_type>
pIC50

> <# Confs.>
25

> <canonical_smiles>
O=C(N[C@@H]1C[C@@H]2CCC[C@H](C1)N2C)C(C3=CC=CC=C34)=NN4C

> <standard_relation>
=

> <Publication_ID>
nan

> <predicted_activity_value>
nan

> <actual_activity_value>
-0.5717088318086876

> <Compound>
Granisetron

> <standard_units>
uM

> hash
616763807710810339

$$$$
22
XXILIB    08252103503D 0   0.00000     0.00000

 23 26  0     1  0            999 V2000
    2.0744   -0.0000    1.0166 O   0  0  0  0  0  2           0  0  0
    2.0994   -0.4416   -3.3987 N   0  0  0  0  0  3           0  0  0
    1.3113   -0.5898   -2.3225 N   0  0  0  0  0  3           0  0  0
   -2.4191   -0.1115    3.3301 N   0  0  1  0  0  3           0  0  0
    0.0000    0.0000    0.0000 N   0  0  0  0  0  3           0  0  0
    3.2599    0.2415   -3.1522 C   0  0  0  0  0  4           0  0  0
    1.9839    0.0018   -1.3247 C   0  0  0  0  0  4           0  0  0
    3.2201    0.5483   -1.7915 C   0  0  0  0  0  4           0  0  0
    4.3254    0.6169   -3.9819 C   0  0  0  0  0  4           0  0  0
    4.2993    1.2633   -1.2315 C   0  0  0  0  0  4           0  0  0
    5.3818    1.3237   -3.4027 C   0  0  0  0  0  4           0  0  0
    5.3708    1.6430   -2.0484 C   0  0  0  0  0  4           0  0  0
    1.3844   -0.0000   -0.0000 C   0  0  0  0  0  4           0  0  0
    1.6481   -0.9827   -4.6573 C   0  0  0  0  0  4           0  0  0
   -1.1345    0.5265    3.6600 C   0  0  2  0  0  4           0  0  0
   -2.1881   -1.4762    2.8292 C   0  0  1  0  0  4           0  0  0
   -0.9072    0.0000    1.1438 C   0  0  1  0  0  4           0  0  0
   -3.4000   -0.0414    4.4063 C   0  0  0  0  0  4           0  0  0
   -0.3028    0.7119    2.3659 C   0  0  0  0  0  4           0  0  0
   -1.4179   -1.4102    1.4860 C   0  0  0  0  0  4           0  0  0
   -0.3452   -0.2628    4.7254 C   0  0  0  0  0  4           0  0  0
   -1.4483   -2.3594    3.8558 C   0  0  0  0  0  4           0  0  0
   -0.1447   -1.7274    4.3400 C   0  0  0  0  0  4           0  0  0
  1 13  2  0     0  0
  2  3  1  0     0  0
  2  6  1  0     0  0
  2 14  1  0     0  0
  3  7  2  0     0  0
  4 15  1  0     0  0
  4 16  1  0     0  0
  4 18  1  0     0  0
  5 13  1  0     0  0
  5 17  1  0     0  0
  6  8  1  0     0  0
  6  9  2  0     0  0
  7  8  1  0     0  0
  7 13  1  0     0  0
  8 10  2  0     0  0
  9 11  1  0     0  0
 10 12  1  0     0  0
 11 12  2  0     0  0
 15 19  1  0     0  0
 15 21  1  0     0  0
 16 20  1  0     0  0
 16 22  1  0     0  0
 17 19  1  0     0  0
 17 20  1  0     0  0
 21 23  1  0     0  0
 22 23  1  0     0  0
M  END
> <standard_type>
pIC50

> <# Confs.>
25

> <canonical_smiles>
O=C(N[C@@H]1C[C@@H]2CCC[C@H](C1)N2C)C(C3=CC=CC=C34)=NN4C

> <standard_relation>
=

> <Publication_ID>
nan

> <predicted_activity_value>
nan

> <actual_activity_value>
-0.5717088318086876

> <Compound>
Granisetron

> <standard_units>
uM

> hash
616763807710810339

$$$$
22
XXILIB    08252103503D 0   0.00000     0.00000

 23 26  0     1  0            999 V2000
    2.0744   -0.0000    1.0166 O   0  0  0  0  0  2           0  0  0
    3.4653    0.4498   -2.7794 N   0  0  0  0  0  3           0  0  0
    3.1769    0.5949   -1.4767 N   0  0  0  0  0  3           0  0  0
   -3.4990   -0.9674    2.0544 N   0  0  1  0  0  3           0  0  0
    0.0000    0.0000   -0.0000 N   0  0  0  0  0  3           0  0  0
    2.5148   -0.2326   -3.4900 C   0  0  0  0  0  4           0  0  0
    1.9839    0.0018   -1.3247 C   0  0  0  0  0  4           0  0  0
    1.5191   -0.5425   -2.5627 C   0  0  0  0  0  4           0  0  0
    2.4351   -0.6052   -4.8390 C   0  0  0  0  0  4           0  0  0
    0.3868   -1.2577   -3.0053 C   0  0  0  0  0  4           0  0  0
    1.3035   -1.3122   -5.2517 C   0  0  0  0  0  4           0  0  0
    0.2936   -1.6345   -4.3503 C   0  0  0  0  0  4           0  0  0
    1.3844   -0.0000   -0.0000 C   0  0  0  0  0  4           0  0  0
    4.7081    0.9932   -3.2700 C   0  0  0  0  0  4           0  0  0
   -3.3430    0.4826    1.8702 C   0  0  2  0  0  4           0  0  0
   -2.3005   -1.5275    2.6956 C   0  0  1  0  0  4           0  0  0
   -0.9072    0.0000    1.1438 C   0  0  1  0  0  4           0  0  0
   -4.7395   -1.3333    2.7306 C   0  0  0  0  0  4           0  0  0
   -2.2309    0.7127    0.8262 C   0  0  0  0  0  4           0  0  0
   -1.1334   -1.4165    1.6938 C   0  0  0  0  0  4           0  0  0
   -3.1082    1.2303    3.1959 C   0  0  0  0  0  4           0  0  0
   -2.0000   -0.8896    4.0654 C   0  0  0  0  0  4           0  0  0
   -2.0105    0.6369    4.0748 C   0  0  0  0  0  4           0  0  0
  1 13  2  0     0  0
  2  3  1  0     0  0
  2  6  1  0     0  0
  2 14  1  0     0  0
  3  7  2  0     0  0
  4 15  1  0     0  0
  4 16  1  0     0  0
  4 18  1  0     0  0
  5 13  1  0     0  0
  5 17  1  0     0  0
  6  8  1  0     0  0
  6  9  2  0     0  0
  7  8  1  0     0  0
  7 13  1  0     0  0
  8 10  2  0     0  0
  9 11  1  0     0  0
 10 12  1  0     0  0
 11 12  2  0     0  0
 15 19  1  0     0  0
 15 21  1  0     0  0
 16 20  1  0     0  0
 16 22  1  0     0  0
 17 19  1  0     0  0
 17 20  1  0     0  0
 21 23  1  0     0  0
 22 23  1  0     0  0
M  END
> <standard_type>
pIC50

> <# Confs.>
25

> <canonical_smiles>
O=C(N[C@@H]1C[C@@H]2CCC[C@H](C1)N2C)C(C3=CC=CC=C34)=NN4C

> <standard_relation>
=

> <Publication_ID>
nan

> <predicted_activity_value>
nan

> <actual_activity_value>
-0.5717088318086876

> <Compound>
Granisetron

> <standard_units>
uM

> hash
616763807710810339

$$$$
22
XXILIB    08252103503D 0   0.00000     0.00000

 23 26  0     1  0            999 V2000
    2.0744   -0.0000    1.0166 O   0  0  0  0  0  2           0  0  0
    3.4653    0.4498   -2.7794 N   0  0  0  0  0  3           0  0  0
    3.1769    0.5949   -1.4767 N   0  0  0  0  0  3           0  0  0
   -3.5816    0.7848    1.9889 N   0  0  1  0  0  3           0  0  0
    0.0000    0.0000    0.0000 N   0  0  0  0  0  3           0  0  0
    2.5148   -0.2326   -3.4900 C   0  0  0  0  0  4           0  0  0
    1.9839    0.0018   -1.3247 C   0  0  0  0  0  4           0  0  0
    1.5191   -0.5425   -2.5627 C   0  0  0  0  0  4           0  0  0
    2.4351   -0.6052   -4.8390 C   0  0  0  0  0  4           0  0  0
    0.3868   -1.2577   -3.0053 C   0  0  0  0  0  4           0  0  0
    1.3035   -1.3122   -5.2517 C   0  0  0  0  0  4           0  0  0
    0.2936   -1.6345   -4.3503 C   0  0  0  0  0  4           0  0  0
    1.3844   -0.0000   -0.0000 C   0  0  0  0  0  4           0  0  0
    4.7081    0.9932   -3.2700 C   0  0  0  0  0  4           0  0  0
   -2.4448    1.5031    2.5826 C   0  0  2  0  0  4           0  0  0
   -3.2871   -0.6536    1.9131 C   0  0  1  0  0  4           0  0  0
   -0.9072    0.0000    1.1438 C   0  0  1  0  0  4           0  0  0
   -4.8542    1.0796    2.6396 C   0  0  0  0  0  4           0  0  0
   -1.2637    1.4254    1.5933 C   0  0  0  0  0  4           0  0  0
   -2.1590   -0.8508    0.8803 C   0  0  0  0  0  4           0  0  0
   -2.0974    1.0041    3.9976 C   0  0  0  0  0  4           0  0  0
   -2.9794   -1.2756    3.2885 C   0  0  0  0  0  4           0  0  0
   -1.9532   -0.5103    4.1202 C   0  0  0  0  0  4           0  0  0
  1 13  2  0     0  0
  2  3  1  0     0  0
  2  6  1  0     0  0
  2 14  1  0     0  0
  3  7  2  0     0  0
  4 15  1  0     0  0
  4 16  1  0     0  0
  4 18  1  0     0  0
  5 13  1  0     0  0
  5 17  1  0     0  0
  6  8  1  0     0  0
  6  9  2  0     0  0
  7  8  1  0     0  0
  7 13  1  0     0  0
  8 10  2  0     0  0
  9 11  1  0     0  0
 10 12  1  0     0  0
 11 12  2  0     0  0
 15 19  1  0     0  0
 15 21  1  0     0  0
 16 20  1  0     0  0
 16 22  1  0     0  0
 17 19  1  0     0  0
 17 20  1  0     0  0
 21 23  1  0     0  0
 22 23  1  0     0  0
M  END
> <standard_type>
pIC50

> <# Confs.>
25

> <canonical_smiles>
O=C(N[C@@H]1C[C@@H]2CCC[C@H](C1)N2C)C(C3=CC=CC=C34)=NN4C

> <standard_relation>
=

> <Publication_ID>
nan

> <predicted_activity_value>
nan

> <actual_activity_value>
-0.5717088318086876

> <Compound>
Granisetron

> <standard_units>
uM

> hash
616763807710810339

$$$$
33
XXILIB    08252103503D 0   0.00000     0.00000

 26 28  0     1  0            999 V2000
   -4.1688   -0.0888   -2.3186 F   0  0  0  0  0  1           0  0  0
   -2.5395   -1.1810   -3.2551 F   0  0  0  0  0  1           0  0  0
   -2.5627    0.9876   -3.3124 F   0  0  0  0  0  1           0  0  0
   -4.8777    0.0326    0.9282 F   0  0  0  0  0  1           0  0  0
   -4.9817    1.1225    2.8060 F   0  0  0  0  0  1           0  0  0
   -5.0054   -1.0469    2.8107 F   0  0  0  0  0  1           0  0  0
    1.9222    0.6839   -1.1846 O   0  0  0  0  0  2           0  0  0
   -2.7915   -0.0125   -0.0777 N   0  0  0  0  0  3           0  0  0
    3.5985   -1.3431    0.0136 N   0  0  0  0  0  3           0  0  0
   -2.1655    0.0010    1.1140 C   0  0  0  0  0  4           0  0  0
   -2.0673   -0.0355   -1.2159 C   0  0  0  0  0  4           0  0  0
   -0.7521   -0.0000    1.2086 C   0  0  0  0  0  4           0  0  0
   -2.9333    0.0127    2.2899 C   0  0  0  0  0  4           0  0  0
    0.0000    0.0000    0.0000 C   0  0  0  0  0  4           0  0  0
   -0.6842   -0.0350   -1.2200 C   0  0  0  0  0  4           0  0  0
   -0.1631   -0.0052    2.4940 C   0  0  0  0  0  4           0  0  0
   -2.3178    0.0148    3.5482 C   0  0  0  0  0  4           0  0  0
   -0.9365    0.0024    3.6500 C   0  0  0  0  0  4           0  0  0
   -2.8205   -0.0789   -2.5054 C   0  0  1  0  0  4           0  0  0
   -4.4252    0.0301    2.2120 C   0  0  1  0  0  4           0  0  0
    1.5066    0.0000    0.0000 C   0  0  1  0  0  4           0  0  0
    2.1249   -1.4069    0.0257 C   0  0  1  0  0  4           0  0  0
    4.1920   -2.6781    0.1156 C   0  0  0  0  0  4           0  0  0
    1.6048   -2.2783   -1.1316 C   0  0  0  0  0  4           0  0  0
    3.7440   -3.5873   -1.0260 C   0  0  0  0  0  4           0  0  0
    2.2234   -3.6740   -1.0946 C   0  0  0  0  0  4           0  0  0
  1 19  1  0     0  0
  2 19  1  0     0  0
  3 19  1  0     0  0
  4 20  1  0     0  0
  5 20  1  0     0  0
  6 20  1  0     0  0
  7 21  1  0     0  0
  8 10  1  0     0  0
  8 11  2  0     0  0
  9 22  1  0     0  0
  9 23  1  0     0  0
 10 12  2  0     0  0
 10 13  1  0     0  0
 11 15  1  0     0  0
 11 19  1  0     0  0
 12 14  1  0     0  0
 12 16  1  0     0  0
 13 17  2  0     0  0
 13 20  1  0     0  0
 14 15  2  0     0  0
 14 21  1  0     0  0
 16 18  2  0     0  0
 17 18  1  0     0  0
 21 22  1  0     0  0
 22 24  1  0     0  0
 23 25  1  0     0  0
 24 26  1  0     0  0
 25 26  1  0     0  0
M  END
> <standard_type>
pIC50

> <# Confs.>
12

> <canonical_smiles>
FC(F)(c(ccc1)c2c1c([C@@H]([C@@H]3NCCCC3)O)cc(C(F)(F)F)n2)F

> <standard_relation>
=

> <Publication_ID>
nan

> <predicted_activity_value>
nan

> <actual_activity_value>
-0.42160392686983106

> <Compound>
Mefloquine

> <standard_units>
uM

> hash
18241970894888807493

$$$$
33
XXILIB    08252103503D 0   0.00000     0.00000

 26 28  0     1  0            999 V2000
   -4.1688   -0.0888   -2.3186 F   0  0  0  0  0  1           0  0  0
   -2.5395   -1.1810   -3.2551 F   0  0  0  0  0  1           0  0  0
   -2.5627    0.9876   -3.3124 F   0  0  0  0  0  1           0  0  0
   -4.8777    0.0326    0.9282 F   0  0  0  0  0  1           0  0  0
   -4.9817    1.1225    2.8060 F   0  0  0  0  0  1           0  0  0
   -5.0054   -1.0469    2.8107 F   0  0  0  0  0  1           0  0  0
    1.9222    0.6839   -1.1846 O   0  0  0  0  0  2           0  0  0
   -2.7915   -0.0125   -0.0777 N   0  0  0  0  0  3           0  0  0
    1.7018   -2.1978   -1.1453 N   0  0  0  0  0  3           0  0  0
   -2.1655    0.0010    1.1140 C   0  0  0  0  0  4           0  0  0
   -2.0673   -0.0355   -1.2159 C   0  0  0  0  0  4           0  0  0
   -0.7521   -0.0000    1.2086 C   0  0  0  0  0  4           0  0  0
   -2.9333    0.0127    2.2899 C   0  0  0  0  0  4           0  0  0
    0.0000    0.0000    0.0000 C   0  0  0  0  0  4           0  0  0
   -0.6842   -0.0350   -1.2200 C   0  0  0  0  0  4           0  0  0
   -0.1631   -0.0052    2.4940 C   0  0  0  0  0  4           0  0  0
   -2.3178    0.0148    3.5482 C   0  0  0  0  0  4           0  0  0
   -0.9365    0.0024    3.6500 C   0  0  0  0  0  4           0  0  0
   -2.8205   -0.0789   -2.5054 C   0  0  1  0  0  4           0  0  0
   -4.4252    0.0301    2.2120 C   0  0  1  0  0  4           0  0  0
    1.5066    0.0000    0.0000 C   0  0  1  0  0  4           0  0  0
    2.1249   -1.4069    0.0257 C   0  0  1  0  0  4           0  0  0
    2.3491   -3.5114   -1.1651 C   0  0  0  0  0  4           0  0  0
    1.7983   -2.1483    1.3344 C   0  0  0  0  0  4           0  0  0
    2.0370   -4.3171    0.0935 C   0  0  0  0  0  4           0  0  0
    2.4197   -3.5431    1.3501 C   0  0  0  0  0  4           0  0  0
  1 19  1  0     0  0
  2 19  1  0     0  0
  3 19  1  0     0  0
  4 20  1  0     0  0
  5 20  1  0     0  0
  6 20  1  0     0  0
  7 21  1  0     0  0
  8 10  1  0     0  0
  8 11  2  0     0  0
  9 22  1  0     0  0
  9 23  1  0     0  0
 10 12  2  0     0  0
 10 13  1  0     0  0
 11 15  1  0     0  0
 11 19  1  0     0  0
 12 14  1  0     0  0
 12 16  1  0     0  0
 13 17  2  0     0  0
 13 20  1  0     0  0
 14 15  2  0     0  0
 14 21  1  0     0  0
 16 18  2  0     0  0
 17 18  1  0     0  0
 21 22  1  0     0  0
 22 24  1  0     0  0
 23 25  1  0     0  0
 24 26  1  0     0  0
 25 26  1  0     0  0
M  END
> <standard_type>
pIC50

> <# Confs.>
12

> <canonical_smiles>
FC(F)(c(ccc1)c2c1c([C@@H]([C@@H]3NCCCC3)O)cc(C(F)(F)F)n2)F

> <standard_relation>
=

> <Publication_ID>
nan

> <predicted_activity_value>
nan

> <actual_activity_value>
-0.42160392686983106

> <Compound>
Mefloquine

> <standard_units>
uM

> hash
18241970894888807493

$$$$
33
XXILIB    08252103503D 0   0.00000     0.00000

 26 28  0     1  0            999 V2000
   -4.1688   -0.0888   -2.3186 F   0  0  0  0  0  1           0  0  0
   -2.5395   -1.1810   -3.2551 F   0  0  0  0  0  1           0  0  0
   -2.5627    0.9876   -3.3124 F   0  0  0  0  0  1           0  0  0
   -4.8777    0.0326    0.9282 F   0  0  0  0  0  1           0  0  0
   -4.9817    1.1225    2.8060 F   0  0  0  0  0  1           0  0  0
   -5.0054   -1.0469    2.8107 F   0  0  0  0  0  1           0  0  0
    1.9222    0.6839   -1.1846 O   0  0  0  0  0  2           0  0  0
   -2.7915   -0.0125   -0.0777 N   0  0  0  0  0  3           0  0  0
    1.7191   -2.1467    1.2355 N   0  0  0  0  0  3           0  0  0
   -2.1655    0.0010    1.1140 C   0  0  0  0  0  4           0  0  0
   -2.0673   -0.0355   -1.2159 C   0  0  0  0  0  4           0  0  0
   -0.7521   -0.0000    1.2086 C   0  0  0  0  0  4           0  0  0
   -2.9333    0.0127    2.2899 C   0  0  0  0  0  4           0  0  0
    0.0000    0.0000    0.0000 C   0  0  0  0  0  4           0  0  0
   -0.6842   -0.0350   -1.2200 C   0  0  0  0  0  4           0  0  0
   -0.1631   -0.0052    2.4940 C   0  0  0  0  0  4           0  0  0
   -2.3178    0.0148    3.5482 C   0  0  0  0  0  4           0  0  0
   -0.9365    0.0024    3.6500 C   0  0  0  0  0  4           0  0  0
   -2.8205   -0.0789   -2.5054 C   0  0  1  0  0  4           0  0  0
   -4.4252    0.0301    2.2120 C   0  0  1  0  0  4           0  0  0
    1.5066    0.0000    0.0000 C   0  0  1  0  0  4           0  0  0
    2.1249   -1.4069    0.0257 C   0  0  1  0  0  4           0  0  0
    2.2433   -3.5143    1.2265 C   0  0  0  0  0  4           0  0  0
    3.6584   -1.3569   -0.0973 C   0  0  0  0  0  4           0  0  0
    3.7674   -3.5375    1.1412 C   0  0  0  0  0  4           0  0  0
    4.2614   -2.7597   -0.0735 C   0  0  0  0  0  4           0  0  0
  1 19  1  0     0  0
  2 19  1  0     0  0
  3 19  1  0     0  0
  4 20  1  0     0  0
  5 20  1  0     0  0
  6 20  1  0     0  0
  7 21  1  0     0  0
  8 10  1  0     0  0
  8 11  2  0     0  0
  9 22  1  0     0  0
  9 23  1  0     0  0
 10 12  2  0     0  0
 10 13  1  0     0  0
 11 15  1  0     0  0
 11 19  1  0     0  0
 12 14  1  0     0  0
 12 16  1  0     0  0
 13 17  2  0     0  0
 13 20  1  0     0  0
 14 15  2  0     0  0
 14 21  1  0     0  0
 16 18  2  0     0  0
 17 18  1  0     0  0
 21 22  1  0     0  0
 22 24  1  0     0  0
 23 25  1  0     0  0
 24 26  1  0     0  0
 25 26  1  0     0  0
M  END
> <standard_type>
pIC50

> <# Confs.>
12

> <canonical_smiles>
FC(F)(c(ccc1)c2c1c([C@@H]([C@@H]3NCCCC3)O)cc(C(F)(F)F)n2)F

> <standard_relation>
=

> <Publication_ID>
nan

> <predicted_activity_value>
nan

> <actual_activity_value>
-0.42160392686983106

> <Compound>
Mefloquine

> <standard_units>
uM

> hash
18241970894888807493

$$$$
33
XXILIB    08252103503D 0   0.00000     0.00000

 26 28  0     1  0            999 V2000
   -4.1688   -0.0888   -2.3186 F   0  0  0  0  0  1           0  0  0
   -2.5395   -1.1810   -3.2551 F   0  0  0  0  0  1           0  0  0
   -2.5627    0.9876   -3.3124 F   0  0  0  0  0  1           0  0  0
   -4.8777    0.0326    0.9282 F   0  0  0  0  0  1           0  0  0
   -4.9817    1.1225    2.8060 F   0  0  0  0  0  1           0  0  0
   -5.0054   -1.0469    2.8107 F   0  0  0  0  0  1           0  0  0
    1.9222    1.3679    0.0000 O   0  0  0  0  0  2           0  0  0
   -2.7915   -0.0125   -0.0777 N   0  0  0  0  0  3           0  0  0
    1.7191   -2.1433   -1.2414 N   0  0  0  0  0  3           0  0  0
   -2.1655    0.0010    1.1140 C   0  0  0  0  0  4           0  0  0
   -2.0673   -0.0355   -1.2159 C   0  0  0  0  0  4           0  0  0
   -0.7521   -0.0000    1.2086 C   0  0  0  0  0  4           0  0  0
   -2.9333    0.0127    2.2899 C   0  0  0  0  0  4           0  0  0
    0.0000    0.0000    0.0000 C   0  0  0  0  0  4           0  0  0
   -0.6842   -0.0350   -1.2200 C   0  0  0  0  0  4           0  0  0
   -0.1631   -0.0052    2.4940 C   0  0  0  0  0  4           0  0  0
   -2.3178    0.0148    3.5482 C   0  0  0  0  0  4           0  0  0
   -0.9365    0.0024    3.6500 C   0  0  0  0  0  4           0  0  0
   -2.8205   -0.0789   -2.5054 C   0  0  1  0  0  4           0  0  0
   -4.4252    0.0301    2.2120 C   0  0  1  0  0  4           0  0  0
    1.5066   -0.0000    0.0000 C   0  0  1  0  0  4           0  0  0
    2.1249   -0.7257   -1.2056 C   0  0  1  0  0  4           0  0  0
    2.2433   -2.8193   -2.4302 C   0  0  0  0  0  4           0  0  0
    3.6584   -0.5942   -1.2238 C   0  0  0  0  0  4           0  0  0
    3.7674   -2.7570   -2.4930 C   0  0  0  0  0  4           0  0  0
    4.2614   -1.3162   -2.4267 C   0  0  0  0  0  4           0  0  0
  1 19  1  0     0  0
  2 19  1  0     0  0
  3 19  1  0     0  0
  4 20  1  0     0  0
  5 20  1  0     0  0
  6 20  1  0     0  0
  7 21  1  0     0  0
  8 10  1  0     0  0
  8 11  2  0     0  0
  9 22  1  0     0  0
  9 23  1  0     0  0
 10 12  2  0     0  0
 10 13  1  0     0  0
 11 15  1  0     0  0
 11 19  1  0     0  0
 12 14  1  0     0  0
 12 16  1  0     0  0
 13 17  2  0     0  0
 13 20  1  0     0  0
 14 15  2  0     0  0
 14 21  1  0     0  0
 16 18  2  0     0  0
 17 18  1  0     0  0
 21 22  1  0     0  0
 22 24  1  0     0  0
 23 25  1  0     0  0
 24 26  1  0     0  0
 25 26  1  0     0  0
M  END
> <standard_type>
pIC50

> <# Confs.>
12

> <canonical_smiles>
FC(F)(c(ccc1)c2c1c([C@@H]([C@@H]3NCCCC3)O)cc(C(F)(F)F)n2)F

> <standard_relation>
=

> <Publication_ID>
nan

> <predicted_activity_value>
nan

> <actual_activity_value>
-0.42160392686983106

> <Compound>
Mefloquine

> <standard_units>
uM

> hash
18241970894888807493

$$$$
33
XXILIB    08252103503D 0   0.00000     0.00000

 26 28  0     1  0            999 V2000
   -4.1688   -0.0888   -2.3186 F   0  0  0  0  0  1           0  0  0
   -2.5395   -1.1810   -3.2551 F   0  0  0  0  0  1           0  0  0
   -2.5627    0.9876   -3.3124 F   0  0  0  0  0  1           0  0  0
   -4.8777    0.0326    0.9282 F   0  0  0  0  0  1           0  0  0
   -4.9817    1.1225    2.8060 F   0  0  0  0  0  1           0  0  0
   -5.0054   -1.0469    2.8107 F   0  0  0  0  0  1           0  0  0
    1.9222   -1.1846    0.6839 O   0  0  0  0  0  2           0  0  0
   -2.7915   -0.0125   -0.0777 N   0  0  0  0  0  3           0  0  0
    1.7191    2.4769    0.0034 N   0  0  0  0  0  3           0  0  0
   -2.1655    0.0010    1.1140 C   0  0  0  0  0  4           0  0  0
   -2.0673   -0.0355   -1.2159 C   0  0  0  0  0  4           0  0  0
   -0.7521   -0.0000    1.2086 C   0  0  0  0  0  4           0  0  0
   -2.9333    0.0127    2.2899 C   0  0  0  0  0  4           0  0  0
    0.0000    0.0000    0.0000 C   0  0  0  0  0  4           0  0  0
   -0.6842   -0.0350   -1.2200 C   0  0  0  0  0  4           0  0  0
   -0.1631   -0.0052    2.4940 C   0  0  0  0  0  4           0  0  0
   -2.3178    0.0148    3.5482 C   0  0  0  0  0  4           0  0  0
   -0.9365    0.0024    3.6500 C   0  0  0  0  0  4           0  0  0
   -2.8205   -0.0789   -2.5054 C   0  0  1  0  0  4           0  0  0
   -4.4252    0.0301    2.2120 C   0  0  1  0  0  4           0  0  0
    1.5066   -0.0000   -0.0000 C   0  0  1  0  0  4           0  0  0
    2.1249    1.2312    0.6812 C   0  0  1  0  0  4           0  0  0
    2.2433    3.6567    0.6950 C   0  0  0  0  0  4           0  0  0
    3.6584    1.1265    0.7627 C   0  0  0  0  0  4           0  0  0
    3.7674    3.6341    0.7804 C   0  0  0  0  0  4           0  0  0
    4.2614    2.3532    1.4435 C   0  0  0  0  0  4           0  0  0
  1 19  1  0     0  0
  2 19  1  0     0  0
  3 19  1  0     0  0
  4 20  1  0     0  0
  5 20  1  0     0  0
  6 20  1  0     0  0
  7 21  1  0     0  0
  8 10  1  0     0  0
  8 11  2  0     0  0
  9 22  1  0     0  0
  9 23  1  0     0  0
 10 12  2  0     0  0
 10 13  1  0     0  0
 11 15  1  0     0  0
 11 19  1  0     0  0
 12 14  1  0     0  0
 12 16  1  0     0  0
 13 17  2  0     0  0
 13 20  1  0     0  0
 14 15  2  0     0  0
 14 21  1  0     0  0
 16 18  2  0     0  0
 17 18  1  0     0  0
 21 22  1  0     0  0
 22 24  1  0     0  0
 23 25  1  0     0  0
 24 26  1  0     0  0
 25 26  1  0     0  0
M  END
> <standard_type>
pIC50

> <# Confs.>
12

> <canonical_smiles>
FC(F)(c(ccc1)c2c1c([C@@H]([C@@H]3NCCCC3)O)cc(C(F)(F)F)n2)F

> <standard_relation>
=

> <Publication_ID>
nan

> <predicted_activity_value>
nan

> <actual_activity_value>
-0.42160392686983106

> <Compound>
Mefloquine

> <standard_units>
uM

> hash
18241970894888807493

$$$$
33
XXILIB    08252103503D 0   0.00000     0.00000

 26 28  0     1  0            999 V2000
   -4.1688   -0.0888   -2.3186 F   0  0  0  0  0  1           0  0  0
   -2.5395   -1.1810   -3.2551 F   0  0  0  0  0  1           0  0  0
   -2.5627    0.9876   -3.3124 F   0  0  0  0  0  1           0  0  0
   -4.8777    0.0326    0.9282 F   0  0  0  0  0  1           0  0  0
   -4.9817    1.1225    2.8060 F   0  0  0  0  0  1           0  0  0
   -5.0054   -1.0469    2.8107 F   0  0  0  0  0  1           0  0  0
    1.9222    1.3679    0.0000 O   0  0  0  0  0  2           0  0  0
   -2.7915   -0.0125   -0.0777 N   0  0  0  0  0  3           0  0  0
    1.7312   -2.1439   -1.2590 N   0  0  0  0  0  3           0  0  0
   -2.1655    0.0010    1.1140 C   0  0  0  0  0  4           0  0  0
   -2.0673   -0.0355   -1.2159 C   0  0  0  0  0  4           0  0  0
   -0.7521   -0.0000    1.2086 C   0  0  0  0  0  4           0  0  0
   -2.9333    0.0127    2.2899 C   0  0  0  0  0  4           0  0  0
    0.0000    0.0000    0.0000 C   0  0  0  0  0  4           0  0  0
   -0.6842   -0.0350   -1.2200 C   0  0  0  0  0  4           0  0  0
   -0.1631   -0.0052    2.4940 C   0  0  0  0  0  4           0  0  0
   -2.3178    0.0148    3.5482 C   0  0  0  0  0  4           0  0  0
   -0.9365    0.0024    3.6500 C   0  0  0  0  0  4           0  0  0
   -2.8205   -0.0789   -2.5054 C   0  0  1  0  0  4           0  0  0
   -4.4252    0.0301    2.2120 C   0  0  1  0  0  4           0  0  0
    1.5066   -0.0000    0.0000 C   0  0  1  0  0  4           0  0  0
    2.1249   -0.7257   -1.2056 C   0  0  1  0  0  4           0  0  0
    2.4657   -3.0080   -0.3400 C   0  0  0  0  0  4           0  0  0
    3.6507   -0.5680   -1.3646 C   0  0  0  0  0  4           0  0  0
    3.9708   -2.9246   -0.5676 C   0  0  0  0  0  4           0  0  0
    4.4700   -1.4898   -0.4660 C   0  0  0  0  0  4           0  0  0
  1 19  1  0     0  0
  2 19  1  0     0  0
  3 19  1  0     0  0
  4 20  1  0     0  0
  5 20  1  0     0  0
  6 20  1  0     0  0
  7 21  1  0     0  0
  8 10  1  0     0  0
  8 11  2  0     0  0
  9 22  1  0     0  0
  9 23  1  0     0  0
 10 12  2  0     0  0
 10 13  1  0     0  0
 11 15  1  0     0  0
 11 19  1  0     0  0
 12 14  1  0     0  0
 12 16  1  0     0  0
 13 17  2  0     0  0
 13 20  1  0     0  0
 14 15  2  0     0  0
 14 21  1  0     0  0
 16 18  2  0     0  0
 17 18  1  0     0  0
 21 22  1  0     0  0
 22 24  1  0     0  0
 23 25  1  0     0  0
 24 26  1  0     0  0
 25 26  1  0     0  0
M  END
> <standard_type>
pIC50

> <# Confs.>
12

> <canonical_smiles>
FC(F)(c(ccc1)c2c1c([C@@H]([C@@H]3NCCCC3)O)cc(C(F)(F)F)n2)F

> <standard_relation>
=

> <Publication_ID>
nan

> <predicted_activity_value>
nan

> <actual_activity_value>
-0.42160392686983106

> <Compound>
Mefloquine

> <standard_units>
uM

> hash
18241970894888807493

$$$$
33
XXILIB    08252103503D 0   0.00000     0.00000

 26 28  0     1  0            999 V2000
   -4.1688   -0.0888   -2.3186 F   0  0  0  0  0  1           0  0  0
   -2.5395   -1.1810   -3.2551 F   0  0  0  0  0  1           0  0  0
   -2.5627    0.9876   -3.3124 F   0  0  0  0  0  1           0  0  0
   -4.8777    0.0326    0.9282 F   0  0  0  0  0  1           0  0  0
   -4.9817    1.1225    2.8060 F   0  0  0  0  0  1           0  0  0
   -5.0054   -1.0469    2.8107 F   0  0  0  0  0  1           0  0  0
    1.9222   -0.6839    1.1846 O   0  0  0  0  0  2           0  0  0
   -2.7915   -0.0125   -0.0777 N   0  0  0  0  0  3           0  0  0
    3.5985    1.3431   -0.0136 N   0  0  0  0  0  3           0  0  0
   -2.1655    0.0010    1.1140 C   0  0  0  0  0  4           0  0  0
   -2.0673   -0.0355   -1.2159 C   0  0  0  0  0  4           0  0  0
   -0.7521   -0.0000    1.2086 C   0  0  0  0  0  4           0  0  0
   -2.9333    0.0127    2.2899 C   0  0  0  0  0  4           0  0  0
    0.0000    0.0000    0.0000 C   0  0  0  0  0  4           0  0  0
   -0.6842   -0.0350   -1.2200 C   0  0  0  0  0  4           0  0  0
   -0.1631   -0.0052    2.4940 C   0  0  0  0  0  4           0  0  0
   -2.3178    0.0148    3.5482 C   0  0  0  0  0  4           0  0  0
   -0.9365    0.0024    3.6500 C   0  0  0  0  0  4           0  0  0
   -2.8205   -0.0789   -2.5054 C   0  0  1  0  0  4           0  0  0
   -4.4252    0.0301    2.2120 C   0  0  1  0  0  4           0  0  0
    1.5066   -0.0000   -0.0000 C   0  0  1  0  0  4           0  0  0
    2.1249    1.4069   -0.0257 C   0  0  1  0  0  4           0  0  0
    4.1920    2.6781   -0.1156 C   0  0  0  0  0  4           0  0  0
    1.6048    2.2783    1.1316 C   0  0  0  0  0  4           0  0  0
    3.7440    3.5873    1.0260 C   0  0  0  0  0  4           0  0  0
    2.2234    3.6740    1.0946 C   0  0  0  0  0  4           0  0  0
  1 19  1  0     0  0
  2 19  1  0     0  0
  3 19  1  0     0  0
  4 20  1  0     0  0
  5 20  1  0     0  0
  6 20  1  0     0  0
  7 21  1  0     0  0
  8 10  1  0     0  0
  8 11  2  0     0  0
  9 22  1  0     0  0
  9 23  1  0     0  0
 10 12  2  0     0  0
 10 13  1  0     0  0
 11 15  1  0     0  0
 11 19  1  0     0  0
 12 14  1  0     0  0
 12 16  1  0     0  0
 13 17  2  0     0  0
 13 20  1  0     0  0
 14 15  2  0     0  0
 14 21  1  0     0  0
 16 18  2  0     0  0
 17 18  1  0     0  0
 21 22  1  0     0  0
 22 24  1  0     0  0
 23 25  1  0     0  0
 24 26  1  0     0  0
 25 26  1  0     0  0
M  END
> <standard_type>
pIC50

> <# Confs.>
12

> <canonical_smiles>
FC(F)(c(ccc1)c2c1c([C@@H]([C@@H]3NCCCC3)O)cc(C(F)(F)F)n2)F

> <standard_relation>
=

> <Publication_ID>
nan

> <predicted_activity_value>
nan

> <actual_activity_value>
-0.42160392686983106

> <Compound>
Mefloquine

> <standard_units>
uM

> hash
18241970894888807493

$$$$
33
XXILIB    08252103503D 0   0.00000     0.00000

 26 28  0     1  0            999 V2000
   -4.1688   -0.0888   -2.3186 F   0  0  0  0  0  1           0  0  0
   -2.5395   -1.1810   -3.2551 F   0  0  0  0  0  1           0  0  0
   -2.5627    0.9876   -3.3124 F   0  0  0  0  0  1           0  0  0
   -4.8777    0.0326    0.9282 F   0  0  0  0  0  1           0  0  0
   -4.9817    1.1225    2.8060 F   0  0  0  0  0  1           0  0  0
   -5.0054   -1.0469    2.8107 F   0  0  0  0  0  1           0  0  0
    1.9222    0.0000   -1.3679 O   0  0  0  0  0  2           0  0  0
   -2.7915   -0.0125   -0.0777 N   0  0  0  0  0  3           0  0  0
    3.5866   -1.1536    0.6817 N   0  0  0  0  0  3           0  0  0
   -2.1655    0.0010    1.1140 C   0  0  0  0  0  4           0  0  0
   -2.0673   -0.0355   -1.2159 C   0  0  0  0  0  4           0  0  0
   -0.7521   -0.0000    1.2086 C   0  0  0  0  0  4           0  0  0
   -2.9333    0.0127    2.2899 C   0  0  0  0  0  4           0  0  0
    0.0000    0.0000    0.0000 C   0  0  0  0  0  4           0  0  0
   -0.6842   -0.0350   -1.2200 C   0  0  0  0  0  4           0  0  0
   -0.1631   -0.0052    2.4940 C   0  0  0  0  0  4           0  0  0
   -2.3178    0.0148    3.5482 C   0  0  0  0  0  4           0  0  0
   -0.9365    0.0024    3.6500 C   0  0  0  0  0  4           0  0  0
   -2.8205   -0.0789   -2.5054 C   0  0  1  0  0  4           0  0  0
   -4.4252    0.0301    2.2120 C   0  0  1  0  0  4           0  0  0
    1.5066    0.0000    0.0000 C   0  0  1  0  0  4           0  0  0
    2.1249   -1.2056    0.7257 C   0  0  1  0  0  4           0  0  0
    4.2163   -2.1523    1.5490 C   0  0  0  0  0  4           0  0  0
    1.6255   -2.5617    0.1809 C   0  0  0  0  0  4           0  0  0
    3.3562   -3.3904    1.8219 C   0  0  0  0  0  4           0  0  0
    2.5002   -3.7437    0.6146 C   0  0  0  0  0  4           0  0  0
  1 19  1  0     0  0
  2 19  1  0     0  0
  3 19  1  0     0  0
  4 20  1  0     0  0
  5 20  1  0     0  0
  6 20  1  0     0  0
  7 21  1  0     0  0
  8 10  1  0     0  0
  8 11  2  0     0  0
  9 22  1  0     0  0
  9 23  1  0     0  0
 10 12  2  0     0  0
 10 13  1  0     0  0
 11 15  1  0     0  0
 11 19  1  0     0  0
 12 14  1  0     0  0
 12 16  1  0     0  0
 13 17  2  0     0  0
 13 20  1  0     0  0
 14 15  2  0     0  0
 14 21  1  0     0  0
 16 18  2  0     0  0
 17 18  1  0     0  0
 21 22  1  0     0  0
 22 24  1  0     0  0
 23 25  1  0     0  0
 24 26  1  0     0  0
 25 26  1  0     0  0
M  END
> <standard_type>
pIC50

> <# Confs.>
12

> <canonical_smiles>
FC(F)(c(ccc1)c2c1c([C@@H]([C@@H]3NCCCC3)O)cc(C(F)(F)F)n2)F

> <standard_relation>
=

> <Publication_ID>
nan

> <predicted_activity_value>
nan

> <actual_activity_value>
-0.42160392686983106

> <Compound>
Mefloquine

> <standard_units>
uM

> hash
18241970894888807493

$$$$
33
XXILIB    08252103503D 0   0.00000     0.00000

 26 28  0     1  0            999 V2000
   -4.1688   -0.0888   -2.3186 F   0  0  0  0  0  1           0  0  0
   -2.5395   -1.1810   -3.2551 F   0  0  0  0  0  1           0  0  0
   -2.5627    0.9876   -3.3124 F   0  0  0  0  0  1           0  0  0
   -4.8777    0.0326    0.9282 F   0  0  0  0  0  1           0  0  0
   -4.9817    1.1225    2.8060 F   0  0  0  0  0  1           0  0  0
   -5.0054   -1.0469    2.8107 F   0  0  0  0  0  1           0  0  0
    1.9222   -1.1846    0.6839 O   0  0  0  0  0  2           0  0  0
   -2.7915   -0.0125   -0.0777 N   0  0  0  0  0  3           0  0  0
    1.7312    2.4862    0.0184 N   0  0  0  0  0  3           0  0  0
   -2.1655    0.0010    1.1140 C   0  0  0  0  0  4           0  0  0
   -2.0673   -0.0355   -1.2159 C   0  0  0  0  0  4           0  0  0
   -0.7521   -0.0000    1.2086 C   0  0  0  0  0  4           0  0  0
   -2.9333    0.0127    2.2899 C   0  0  0  0  0  4           0  0  0
    0.0000    0.0000    0.0000 C   0  0  0  0  0  4           0  0  0
   -0.6842   -0.0350   -1.2200 C   0  0  0  0  0  4           0  0  0
   -0.1631   -0.0052    2.4940 C   0  0  0  0  0  4           0  0  0
   -2.3178    0.0148    3.5482 C   0  0  0  0  0  4           0  0  0
   -0.9365    0.0024    3.6500 C   0  0  0  0  0  4           0  0  0
   -2.8205   -0.0789   -2.5054 C   0  0  1  0  0  4           0  0  0
   -4.4252    0.0301    2.2120 C   0  0  1  0  0  4           0  0  0
    1.5066   -0.0000   -0.0000 C   0  0  1  0  0  4           0  0  0
    2.1249    1.2312    0.6812 C   0  0  1  0  0  4           0  0  0
    2.4657    2.7750   -1.2095 C   0  0  0  0  0  4           0  0  0
    3.6507    1.1742    0.8978 C   0  0  0  0  0  4           0  0  0
    3.9708    2.8166   -0.9708 C   0  0  0  0  0  4           0  0  0
    4.4700    1.5232   -0.3414 C   0  0  0  0  0  4           0  0  0
  1 19  1  0     0  0
  2 19  1  0     0  0
  3 19  1  0     0  0
  4 20  1  0     0  0
  5 20  1  0     0  0
  6 20  1  0     0  0
  7 21  1  0     0  0
  8 10  1  0     0  0
  8 11  2  0     0  0
  9 22  1  0     0  0
  9 23  1  0     0  0
 10 12  2  0     0  0
 10 13  1  0     0  0
 11 15  1  0     0  0
 11 19  1  0     0  0
 12 14  1  0     0  0
 12 16  1  0     0  0
 13 17  2  0     0  0
 13 20  1  0     0  0
 14 15  2  0     0  0
 14 21  1  0     0  0
 16 18  2  0     0  0
 17 18  1  0     0  0
 21 22  1  0     0  0
 22 24  1  0     0  0
 23 25  1  0     0  0
 24 26  1  0     0  0
 25 26  1  0     0  0
M  END
> <standard_type>
pIC50

> <# Confs.>
12

> <canonical_smiles>
FC(F)(c(ccc1)c2c1c([C@@H]([C@@H]3NCCCC3)O)cc(C(F)(F)F)n2)F

> <standard_relation>
=

> <Publication_ID>
nan

> <predicted_activity_value>
nan

> <actual_activity_value>
-0.42160392686983106

> <Compound>
Mefloquine

> <standard_units>
uM

> hash
18241970894888807493

$$$$
33
XXILIB    08252103503D 0   0.00000     0.00000

 26 28  0     1  0            999 V2000
   -4.1688   -0.0888   -2.3186 F   0  0  0  0  0  1           0  0  0
   -2.5395   -1.1810   -3.2551 F   0  0  0  0  0  1           0  0  0
   -2.5627    0.9876   -3.3124 F   0  0  0  0  0  1           0  0  0
   -4.8777    0.0326    0.9282 F   0  0  0  0  0  1           0  0  0
   -4.9817    1.1225    2.8060 F   0  0  0  0  0  1           0  0  0
   -5.0054   -1.0469    2.8107 F   0  0  0  0  0  1           0  0  0
    1.9222    1.1846   -0.6839 O   0  0  0  0  0  2           0  0  0
   -2.7915   -0.0125   -0.0777 N   0  0  0  0  0  3           0  0  0
    1.7032   -1.3268   -2.0791 N   0  0  0  0  0  3           0  0  0
   -2.1655    0.0010    1.1140 C   0  0  0  0  0  4           0  0  0
   -2.0673   -0.0355   -1.2159 C   0  0  0  0  0  4           0  0  0
   -0.7521   -0.0000    1.2086 C   0  0  0  0  0  4           0  0  0
   -2.9333    0.0127    2.2899 C   0  0  0  0  0  4           0  0  0
    0.0000    0.0000    0.0000 C   0  0  0  0  0  4           0  0  0
   -0.6842   -0.0350   -1.2200 C   0  0  0  0  0  4           0  0  0
   -0.1631   -0.0052    2.4940 C   0  0  0  0  0  4           0  0  0
   -2.3178    0.0148    3.5482 C   0  0  0  0  0  4           0  0  0
   -0.9365    0.0024    3.6500 C   0  0  0  0  0  4           0  0  0
   -2.8205   -0.0789   -2.5054 C   0  0  1  0  0  4           0  0  0
   -4.4252    0.0301    2.2120 C   0  0  1  0  0  4           0  0  0
    1.5066    0.0000    0.0000 C   0  0  1  0  0  4           0  0  0
    2.1249   -1.2312   -0.6812 C   0  0  1  0  0  4           0  0  0
    2.4417   -2.3479   -2.8262 C   0  0  0  0  0  4           0  0  0
    1.8154   -2.5516    0.0579 C   0  0  0  0  0  4           0  0  0
    3.0059   -3.4823   -1.9648 C   0  0  0  0  0  4           0  0  0
    2.0848   -3.7965   -0.7953 C   0  0  0  0  0  4           0  0  0
  1 19  1  0     0  0
  2 19  1  0     0  0
  3 19  1  0     0  0
  4 20  1  0     0  0
  5 20  1  0     0  0
  6 20  1  0     0  0
  7 21  1  0     0  0
  8 10  1  0     0  0
  8 11  2  0     0  0
  9 22  1  0     0  0
  9 23  1  0     0  0
 10 12  2  0     0  0
 10 13  1  0     0  0
 11 15  1  0     0  0
 11 19  1  0     0  0
 12 14  1  0     0  0
 12 16  1  0     0  0
 13 17  2  0     0  0
 13 20  1  0     0  0
 14 15  2  0     0  0
 14 21  1  0     0  0
 16 18  2  0     0  0
 17 18  1  0     0  0
 21 22  1  0     0  0
 22 24  1  0     0  0
 23 25  1  0     0  0
 24 26  1  0     0  0
 25 26  1  0     0  0
M  END
> <standard_type>
pIC50

> <# Confs.>
12

> <canonical_smiles>
FC(F)(c(ccc1)c2c1c([C@@H]([C@@H]3NCCCC3)O)cc(C(F)(F)F)n2)F

> <standard_relation>
=

> <Publication_ID>
nan

> <predicted_activity_value>
nan

> <actual_activity_value>
-0.42160392686983106

> <Compound>
Mefloquine

> <standard_units>
uM

> hash
18241970894888807493

$$$$
33
XXILIB    08252103503D 0   0.00000     0.00000

 26 28  0     1  0            999 V2000
   -4.1688   -0.0888   -2.3186 F   0  0  0  0  0  1           0  0  0
   -2.5395   -1.1810   -3.2551 F   0  0  0  0  0  1           0  0  0
   -2.5627    0.9876   -3.3124 F   0  0  0  0  0  1           0  0  0
   -4.8777    0.0326    0.9282 F   0  0  0  0  0  1           0  0  0
   -4.9817    1.1225    2.8060 F   0  0  0  0  0  1           0  0  0
   -5.0054   -1.0469    2.8107 F   0  0  0  0  0  1           0  0  0
    1.9222    0.6839    1.1846 O   0  0  0  0  0  2           0  0  0
   -2.7915   -0.0125   -0.0777 N   0  0  0  0  0  3           0  0  0
    3.5985    0.6598   -1.1699 N   0  0  0  0  0  3           0  0  0
   -2.1655    0.0010    1.1140 C   0  0  0  0  0  4           0  0  0
   -2.0673   -0.0355   -1.2159 C   0  0  0  0  0  4           0  0  0
   -0.7521   -0.0000    1.2086 C   0  0  0  0  0  4           0  0  0
   -2.9333    0.0127    2.2899 C   0  0  0  0  0  4           0  0  0
    0.0000    0.0000    0.0000 C   0  0  0  0  0  4           0  0  0
   -0.6842   -0.0350   -1.2200 C   0  0  0  0  0  4           0  0  0
   -0.1631   -0.0052    2.4940 C   0  0  0  0  0  4           0  0  0
   -2.3178    0.0148    3.5482 C   0  0  0  0  0  4           0  0  0
   -0.9365    0.0024    3.6500 C   0  0  0  0  0  4           0  0  0
   -2.8205   -0.0789   -2.5054 C   0  0  1  0  0  4           0  0  0
   -4.4252    0.0301    2.2120 C   0  0  1  0  0  4           0  0  0
    1.5066   -0.0000    0.0000 C   0  0  1  0  0  4           0  0  0
    2.1249    0.6812   -1.2312 C   0  0  1  0  0  4           0  0  0
    4.1920    1.2390   -2.3771 C   0  0  0  0  0  4           0  0  0
    1.6048    2.1192   -1.4072 C   0  0  0  0  0  4           0  0  0
    3.7440    2.6822   -2.5937 C   0  0  0  0  0  4           0  0  0
    2.2234    2.7850   -2.6345 C   0  0  0  0  0  4           0  0  0
  1 19  1  0     0  0
  2 19  1  0     0  0
  3 19  1  0     0  0
  4 20  1  0     0  0
  5 20  1  0     0  0
  6 20  1  0     0  0
  7 21  1  0     0  0
  8 10  1  0     0  0
  8 11  2  0     0  0
  9 22  1  0     0  0
  9 23  1  0     0  0
 10 12  2  0     0  0
 10 13  1  0     0  0
 11 15  1  0     0  0
 11 19  1  0     0  0
 12 14  1  0     0  0
 12 16  1  0     0  0
 13 17  2  0     0  0
 13 20  1  0     0  0
 14 15  2  0     0  0
 14 21  1  0     0  0
 16 18  2  0     0  0
 17 18  1  0     0  0
 21 22  1  0     0  0
 22 24  1  0     0  0
 23 25  1  0     0  0
 24 26  1  0     0  0
 25 26  1  0     0  0
M  END
> <standard_type>
pIC50

> <# Confs.>
12

> <canonical_smiles>
FC(F)(c(ccc1)c2c1c([C@@H]([C@@H]3NCCCC3)O)cc(C(F)(F)F)n2)F

> <standard_relation>
=

> <Publication_ID>
nan

> <predicted_activity_value>
nan

> <actual_activity_value>
-0.42160392686983106

> <Compound>
Mefloquine

> <standard_units>
uM

> hash
18241970894888807493

$$$$
33
XXILIB    08252103503D 0   0.00000     0.00000

 26 28  0     1  0            999 V2000
   -4.1688   -0.0888   -2.3186 F   0  0  0  0  0  1           0  0  0
   -2.5395   -1.1810   -3.2551 F   0  0  0  0  0  1           0  0  0
   -2.5627    0.9876   -3.3124 F   0  0  0  0  0  1           0  0  0
   -4.8777    0.0326    0.9282 F   0  0  0  0  0  1           0  0  0
   -4.9817    1.1225    2.8060 F   0  0  0  0  0  1           0  0  0
   -5.0054   -1.0469    2.8107 F   0  0  0  0  0  1           0  0  0
    1.9222   -0.6839    1.1846 O   0  0  0  0  0  2           0  0  0
   -2.7915   -0.0125   -0.0777 N   0  0  0  0  0  3           0  0  0
    1.7018    2.1978    1.1453 N   0  0  0  0  0  3           0  0  0
   -2.1655    0.0010    1.1140 C   0  0  0  0  0  4           0  0  0
   -2.0673   -0.0355   -1.2159 C   0  0  0  0  0  4           0  0  0
   -0.7521   -0.0000    1.2086 C   0  0  0  0  0  4           0  0  0
   -2.9333    0.0127    2.2899 C   0  0  0  0  0  4           0  0  0
    0.0000    0.0000    0.0000 C   0  0  0  0  0  4           0  0  0
   -0.6842   -0.0350   -1.2200 C   0  0  0  0  0  4           0  0  0
   -0.1631   -0.0052    2.4940 C   0  0  0  0  0  4           0  0  0
   -2.3178    0.0148    3.5482 C   0  0  0  0  0  4           0  0  0
   -0.9365    0.0024    3.6500 C   0  0  0  0  0  4           0  0  0
   -2.8205   -0.0789   -2.5054 C   0  0  1  0  0  4           0  0  0
   -4.4252    0.0301    2.2120 C   0  0  1  0  0  4           0  0  0
    1.5066   -0.0000   -0.0000 C   0  0  1  0  0  4           0  0  0
    2.1249    1.4069   -0.0257 C   0  0  1  0  0  4           0  0  0
    2.3491    3.5114    1.1651 C   0  0  0  0  0  4           0  0  0
    1.7983    2.1483   -1.3344 C   0  0  0  0  0  4           0  0  0
    2.0370    4.3171   -0.0935 C   0  0  0  0  0  4           0  0  0
    2.4197    3.5431   -1.3501 C   0  0  0  0  0  4           0  0  0
  1 19  1  0     0  0
  2 19  1  0     0  0
  3 19  1  0     0  0
  4 20  1  0     0  0
  5 20  1  0     0  0
  6 20  1  0     0  0
  7 21  1  0     0  0
  8 10  1  0     0  0
  8 11  2  0     0  0
  9 22  1  0     0  0
  9 23  1  0     0  0
 10 12  2  0     0  0
 10 13  1  0     0  0
 11 15  1  0     0  0
 11 19  1  0     0  0
 12 14  1  0     0  0
 12 16  1  0     0  0
 13 17  2  0     0  0
 13 20  1  0     0  0
 14 15  2  0     0  0
 14 21  1  0     0  0
 16 18  2  0     0  0
 17 18  1  0     0  0
 21 22  1  0     0  0
 22 24  1  0     0  0
 23 25  1  0     0  0
 24 26  1  0     0  0
 25 26  1  0     0  0
M  END
> <standard_type>
pIC50

> <# Confs.>
12

> <canonical_smiles>
FC(F)(c(ccc1)c2c1c([C@@H]([C@@H]3NCCCC3)O)cc(C(F)(F)F)n2)F

> <standard_relation>
=

> <Publication_ID>
nan

> <predicted_activity_value>
nan

> <actual_activity_value>
-0.42160392686983106

> <Compound>
Mefloquine

> <standard_units>
uM

> hash
18241970894888807493

$$$$
3
XXILIB    08252103503D 0   0.00000     0.00000

 32 35  0     1  0            999 V2000
    3.4760    2.0181    8.5344 Cl  0  0  0  0  0  1           0  0  0
    5.4044    1.3057    2.1726 O   0  0  0  0  0  2           0  0  0
    1.8436    1.9985   -1.1495 O   0  0  0  0  0  2           0  0  0
    1.8589   -2.0142    1.1134 O   0  0  0  0  0  2           0  0  0
    4.5741    1.3859   -0.8226 N   0  0  0  0  0  3           0  0  0
    3.5636    0.6083   -0.3636 N   0  0  1  0  0  3           0  0  0
    1.4533    0.0000    0.0000 N   0  0  2  0  0  3           0  0  0
   -0.3441    2.3242    4.5626 N   0  0  1  0  0  3           0  0  0
   -0.7029    4.6155    6.3404 N   0  0  2  0  0  3           0  0  0
    4.1783    1.6232    7.0121 C   0  0  0  0  0  4           0  0  0
    5.9104    0.6518    3.2614 C   0  0  0  0  0  4           0  0  0
    6.0806    0.8603    1.0752 C   0  0  0  0  0  4           0  0  0
    5.3184    0.9836    4.5427 C   0  0  0  0  0  4           0  0  0
    3.7168    2.2483    5.8540 C   0  0  0  0  0  4           0  0  0
    5.2046    0.6813    6.9468 C   0  0  0  0  0  4           0  0  0
    6.9103   -0.2110    2.8574 C   0  0  0  0  0  4           0  0  0
    7.0218   -0.0739    1.4522 C   0  0  0  0  0  4           0  0  0
    4.2865    1.9275    4.6202 C   0  0  0  0  0  4           0  0  0
    5.7735    0.3620    5.7123 C   0  0  0  0  0  4           0  0  0
    2.2341    0.9912   -0.5723 C   0  0  0  0  0  4           0  0  0
    2.2342   -0.9958    0.5472 C   0  0  0  0  0  4           0  0  0
    5.7141    1.4101   -0.1980 C   0  0  0  0  0  4           0  0  0
    3.6927   -0.6402    0.3423 C   0  0  0  0  0  4           0  0  0
   -0.7878    3.6162    4.0297 C   0  0  0  0  0  4           0  0  0
   -0.8059    2.1324    5.9410 C   0  0  0  0  0  4           0  0  0
   -0.3156    4.7640    4.9318 C   0  0  0  0  0  4           0  0  0
   -0.3317    3.2842    6.8370 C   0  0  0  0  0  4           0  0  0
    0.0000    0.0000    0.0000 C   0  0  0  0  0  4           0  0  0
   -0.6976    1.2030    3.6896 C   0  0  0  0  0  4           0  0  0
   -2.1188    4.9068    6.5551 C   0  0  0  0  0  4           0  0  0
   -0.5556   -0.0000    1.4201 C   0  0  0  0  0  4           0  0  0
   -0.1407    1.2030    2.2659 C   0  0  0  0  0  4           0  0  0
  1 10  1  0     0  0
  2 11  1  0     0  0
  2 12  1  0     0  0
  3 20  2  0     0  0
  4 21  2  0     0  0
  5  6  1  0     0  0
  5 22  2  0     0  0
  6 20  1  0     0  0
  6 23  1  0     0  0
  7 20  1  0     0  0
  7 21  1  0     0  0
  7 28  1  0     0  0
  8 24  1  0     0  0
  8 25  1  0     0  0
  8 29  1  0     0  0
  9 26  1  0     0  0
  9 27  1  0     0  0
  9 30  1  0     0  0
 10 14  1  0     0  0
 10 15  2  0     0  0
 11 13  1  0     0  0
 11 16  2  0     0  0
 12 17  2  0     0  0
 12 22  1  0     0  0
 13 18  1  0     0  0
 13 19  2  0     0  0
 14 18  2  0     0  0
 15 19  1  0     0  0
 16 17  1  0     0  0
 21 23  1  0     0  0
 24 26  1  0     0  0
 25 27  1  0     0  0
 28 31  1  0     0  0
 29 32  1  0     0  0
 31 32  1  0     0  0
M  END
> <standard_type>
pIC50

> <# Confs.>
25

> <canonical_smiles>
O=C(N1/N=C/C2=CC=C(C(C=C3)=CC=C3Cl)O2)N(CCCCN4CCN(C)CC4)C(C1)=O

> <standard_relation>
=

> <Publication_ID>
nan

> <predicted_activity_value>
nan

> <actual_activity_value>
0.25181197299379954

> <Compound>
Azimilide

> <standard_units>
uM

> hash
3828609077382895411

$$$$
3
XXILIB    08252103503D 0   0.00000     0.00000

 32 35  0     1  0            999 V2000
    3.4754   -2.5186    8.4000 Cl  0  0  0  0  0  1           0  0  0
    5.4044    0.0445    2.5344 O   0  0  0  0  0  2           0  0  0
    1.8436    2.3055    0.0038 O   0  0  0  0  0  2           0  0  0
    1.8589   -2.3010   -0.0429 O   0  0  0  0  0  2           0  0  0
    4.5741    1.6115   -0.0195 N   0  0  0  0  0  3           0  0  0
    3.5636    0.7086   -0.0107 N   0  0  1  0  0  3           0  0  0
    1.4533    0.0000    0.0000 N   0  0  2  0  0  3           0  0  0
   -0.3441   -2.3242    4.5626 N   0  0  1  0  0  3           0  0  0
   -0.6946   -4.6929    6.2377 N   0  0  2  0  0  3           0  0  0
    4.1781   -2.1000    6.8842 C   0  0  0  0  0  4           0  0  0
    5.9104   -1.0662    3.1503 C   0  0  0  0  0  4           0  0  0
    6.0806    0.2074    1.3612 C   0  0  0  0  0  4           0  0  0
    5.3184   -1.4195    4.4258 C   0  0  0  0  0  4           0  0  0
    3.4076   -1.4510    5.9199 C   0  0  0  0  0  4           0  0  0
    5.5135   -2.4118    6.6308 C   0  0  0  0  0  4           0  0  0
    6.9103   -1.6114    2.3690 C   0  0  0  0  0  4           0  0  0
    7.0218   -0.7901    1.2207 C   0  0  0  0  0  4           0  0  0
    3.9780   -1.1121    4.6912 C   0  0  0  0  0  4           0  0  0
    6.0824   -2.0717    5.4019 C   0  0  0  0  0  4           0  0  0
    2.2341    1.1446   -0.0000 C   0  0  0  0  0  4           0  0  0
    2.2342   -1.1360   -0.0240 C   0  0  0  0  0  4           0  0  0
    5.7141    1.3202    0.5336 C   0  0  0  0  0  4           0  0  0
    3.6927   -0.7256   -0.0236 C   0  0  0  0  0  4           0  0  0
   -0.9381   -2.2088    5.8982 C   0  0  0  0  0  4           0  0  0
   -0.6464   -3.6257    3.9585 C   0  0  0  0  0  4           0  0  0
   -0.4659   -3.3562    6.8009 C   0  0  0  0  0  4           0  0  0
   -0.1732   -4.7681    4.8669 C   0  0  0  0  0  4           0  0  0
    0.0000    0.0000    0.0000 C   0  0  0  0  0  4           0  0  0
   -0.6976   -1.2030    3.6896 C   0  0  0  0  0  4           0  0  0
   -2.0994   -5.0887    6.3137 C   0  0  0  0  0  4           0  0  0
   -0.5556   -0.0000    1.4201 C   0  0  0  0  0  4           0  0  0
   -0.1407   -1.2030    2.2659 C   0  0  0  0  0  4           0  0  0
  1 10  1  0     0  0
  2 11  1  0     0  0
  2 12  1  0     0  0
  3 20  2  0     0  0
  4 21  2  0     0  0
  5  6  1  0     0  0
  5 22  2  0     0  0
  6 20  1  0     0  0
  6 23  1  0     0  0
  7 20  1  0     0  0
  7 21  1  0     0  0
  7 28  1  0     0  0
  8 24  1  0     0  0
  8 25  1  0     0  0
  8 29  1  0     0  0
  9 26  1  0     0  0
  9 27  1  0     0  0
  9 30  1  0     0  0
 10 14  1  0     0  0
 10 15  2  0     0  0
 11 13  1  0     0  0
 11 16  2  0     0  0
 12 17  2  0     0  0
 12 22  1  0     0  0
 13 18  1  0     0  0
 13 19  2  0     0  0
 14 18  2  0     0  0
 15 19  1  0     0  0
 16 17  1  0     0  0
 21 23  1  0     0  0
 24 26  1  0     0  0
 25 27  1  0     0  0
 28 31  1  0     0  0
 29 32  1  0     0  0
 31 32  1  0     0  0
M  END
> <standard_type>
pIC50

> <# Confs.>
25

> <canonical_smiles>
O=C(N1/N=C/C2=CC=C(C(C=C3)=CC=C3Cl)O2)N(CCCCN4CCN(C)CC4)C(C1)=O

> <standard_relation>
=

> <Publication_ID>
nan

> <predicted_activity_value>
nan

> <actual_activity_value>
0.25181197299379954

> <Compound>
Azimilide

> <standard_units>
uM

> hash
3828609077382895411

$$$$
3
XXILIB    08252103503D 0   0.00000     0.00000

 32 35  0     1  0            999 V2000
    3.4760    2.0181    8.5344 Cl  0  0  0  0  0  1           0  0  0
    5.4044    1.3057    2.1726 O   0  0  0  0  0  2           0  0  0
    1.8436    1.9985   -1.1495 O   0  0  0  0  0  2           0  0  0
    1.8589   -2.0142    1.1134 O   0  0  0  0  0  2           0  0  0
    4.5741    1.3859   -0.8226 N   0  0  0  0  0  3           0  0  0
    3.5636    0.6083   -0.3636 N   0  0  1  0  0  3           0  0  0
    1.4533    0.0000    0.0000 N   0  0  2  0  0  3           0  0  0
   -2.0066    2.7948    1.5193 N   0  0  1  0  0  3           0  0  0
   -4.6128    4.0895    1.7857 N   0  0  2  0  0  3           0  0  0
    4.1783    1.6232    7.0121 C   0  0  0  0  0  4           0  0  0
    5.9104    0.6518    3.2614 C   0  0  0  0  0  4           0  0  0
    6.0806    0.8603    1.0752 C   0  0  0  0  0  4           0  0  0
    5.3184    0.9836    4.5427 C   0  0  0  0  0  4           0  0  0
    3.7168    2.2483    5.8540 C   0  0  0  0  0  4           0  0  0
    5.2046    0.6813    6.9468 C   0  0  0  0  0  4           0  0  0
    6.9103   -0.2110    2.8574 C   0  0  0  0  0  4           0  0  0
    7.0218   -0.0739    1.4522 C   0  0  0  0  0  4           0  0  0
    4.2865    1.9275    4.6202 C   0  0  0  0  0  4           0  0  0
    5.7735    0.3620    5.7123 C   0  0  0  0  0  4           0  0  0
    2.2341    0.9912   -0.5723 C   0  0  0  0  0  4           0  0  0
    2.2342   -0.9958    0.5472 C   0  0  0  0  0  4           0  0  0
    5.7141    1.4101   -0.1980 C   0  0  0  0  0  4           0  0  0
    3.6927   -0.6402    0.3423 C   0  0  0  0  0  4           0  0  0
   -2.7603    2.6975    2.7734 C   0  0  0  0  0  4           0  0  0
   -2.2840    4.0594    0.8309 C   0  0  0  0  0  4           0  0  0
   -4.2635    2.8638    2.5150 C   0  0  0  0  0  4           0  0  0
   -3.7887    4.2200    0.5772 C   0  0  0  0  0  4           0  0  0
    0.0000    0.0000    0.0000 C   0  0  0  0  0  4           0  0  0
   -0.5735    2.5569    1.7031 C   0  0  0  0  0  4           0  0  0
   -4.5340    5.2761    2.6351 C   0  0  0  0  0  4           0  0  0
   -0.5556   -0.0000    1.4201 C   0  0  0  0  0  4           0  0  0
   -0.1407    1.2030    2.2659 C   0  0  0  0  0  4           0  0  0
  1 10  1  0     0  0
  2 11  1  0     0  0
  2 12  1  0     0  0
  3 20  2  0     0  0
  4 21  2  0     0  0
  5  6  1  0     0  0
  5 22  2  0     0  0
  6 20  1  0     0  0
  6 23  1  0     0  0
  7 20  1  0     0  0
  7 21  1  0     0  0
  7 28  1  0     0  0
  8 24  1  0     0  0
  8 25  1  0     0  0
  8 29  1  0     0  0
  9 26  1  0     0  0
  9 27  1  0     0  0
  9 30  1  0     0  0
 10 14  1  0     0  0
 10 15  2  0     0  0
 11 13  1  0     0  0
 11 16  2  0     0  0
 12 17  2  0     0  0
 12 22  1  0     0  0
 13 18  1  0     0  0
 13 19  2  0     0  0
 14 18  2  0     0  0
 15 19  1  0     0  0
 16 17  1  0     0  0
 21 23  1  0     0  0
 24 26  1  0     0  0
 25 27  1  0     0  0
 28 31  1  0     0  0
 29 32  1  0     0  0
 31 32  1  0     0  0
M  END
> <standard_type>
pIC50

> <# Confs.>
25

> <canonical_smiles>
O=C(N1/N=C/C2=CC=C(C(C=C3)=CC=C3Cl)O2)N(CCCCN4CCN(C)CC4)C(C1)=O

> <standard_relation>
=

> <Publication_ID>
nan

> <predicted_activity_value>
nan

> <actual_activity_value>
0.25181197299379954

> <Compound>
Azimilide

> <standard_units>
uM

> hash
3828609077382895411

$$$$
3
XXILIB    08252103503D 0   0.00000     0.00000

 32 35  0     1  0            999 V2000
    3.4760    2.0181    8.5344 Cl  0  0  0  0  0  1           0  0  0
    5.4044    1.3057    2.1726 O   0  0  0  0  0  2           0  0  0
    1.8436    1.9985   -1.1495 O   0  0  0  0  0  2           0  0  0
    1.8589   -2.0142    1.1134 O   0  0  0  0  0  2           0  0  0
    4.5741    1.3859   -0.8226 N   0  0  0  0  0  3           0  0  0
    3.5636    0.6083   -0.3636 N   0  0  1  0  0  3           0  0  0
    1.4533    0.0000    0.0000 N   0  0  2  0  0  3           0  0  0
   -0.3441    0.0818    4.5626 N   0  0  1  0  0  3           0  0  0
    0.7070   -1.3354    6.8920 N   0  0  2  0  0  3           0  0  0
    4.1783    1.6232    7.0121 C   0  0  0  0  0  4           0  0  0
    5.9104    0.6518    3.2614 C   0  0  0  0  0  4           0  0  0
    6.0806    0.8603    1.0752 C   0  0  0  0  0  4           0  0  0
    5.3184    0.9836    4.5427 C   0  0  0  0  0  4           0  0  0
    3.7168    2.2483    5.8540 C   0  0  0  0  0  4           0  0  0
    5.2046    0.6813    6.9468 C   0  0  0  0  0  4           0  0  0
    6.9103   -0.2110    2.8574 C   0  0  0  0  0  4           0  0  0
    7.0218   -0.0739    1.4522 C   0  0  0  0  0  4           0  0  0
    4.2865    1.9275    4.6202 C   0  0  0  0  0  4           0  0  0
    5.7735    0.3620    5.7123 C   0  0  0  0  0  4           0  0  0
    2.2341    0.9912   -0.5723 C   0  0  0  0  0  4           0  0  0
    2.2342   -0.9958    0.5472 C   0  0  0  0  0  4           0  0  0
    5.7141    1.4101   -0.1980 C   0  0  0  0  0  4           0  0  0
    3.6927   -0.6402    0.3423 C   0  0  0  0  0  4           0  0  0
    1.1027   -0.0381    4.7693 C   0  0  0  0  0  4           0  0  0
   -1.0613    0.1153    5.8411 C   0  0  0  0  0  4           0  0  0
    1.4272   -1.2775    5.6136 C   0  0  0  0  0  4           0  0  0
   -0.7311   -1.1258    6.6807 C   0  0  0  0  0  4           0  0  0
    0.0000    0.0000    0.0000 C   0  0  0  0  0  4           0  0  0
   -0.6976    1.2030    3.6896 C   0  0  0  0  0  4           0  0  0
    1.2587   -0.4069    7.8765 C   0  0  0  0  0  4           0  0  0
   -0.5556   -0.0000    1.4201 C   0  0  0  0  0  4           0  0  0
   -0.1407    1.2030    2.2659 C   0  0  0  0  0  4           0  0  0
  1 10  1  0     0  0
  2 11  1  0     0  0
  2 12  1  0     0  0
  3 20  2  0     0  0
  4 21  2  0     0  0
  5  6  1  0     0  0
  5 22  2  0     0  0
  6 20  1  0     0  0
  6 23  1  0     0  0
  7 20  1  0     0  0
  7 21  1  0     0  0
  7 28  1  0     0  0
  8 24  1  0     0  0
  8 25  1  0     0  0
  8 29  1  0     0  0
  9 26  1  0     0  0
  9 27  1  0     0  0
  9 30  1  0     0  0
 10 14  1  0     0  0
 10 15  2  0     0  0
 11 13  1  0     0  0
 11 16  2  0     0  0
 12 17  2  0     0  0
 12 22  1  0     0  0
 13 18  1  0     0  0
 13 19  2  0     0  0
 14 18  2  0     0  0
 15 19  1  0     0  0
 16 17  1  0     0  0
 21 23  1  0     0  0
 24 26  1  0     0  0
 25 27  1  0     0  0
 28 31  1  0     0  0
 29 32  1  0     0  0
 31 32  1  0     0  0
M  END
> <standard_type>
pIC50

> <# Confs.>
25

> <canonical_smiles>
O=C(N1/N=C/C2=CC=C(C(C=C3)=CC=C3Cl)O2)N(CCCCN4CCN(C)CC4)C(C1)=O

> <standard_relation>
=

> <Publication_ID>
nan

> <predicted_activity_value>
nan

> <actual_activity_value>
0.25181197299379954

> <Compound>
Azimilide

> <standard_units>
uM

> hash
3828609077382895411

$$$$
3
XXILIB    08252103503D 0   0.00000     0.00000

 32 35  0     1  0            999 V2000
    3.4760   -2.5195    8.4000 Cl  0  0  0  0  0  1           0  0  0
    5.4044    0.0445    2.5344 O   0  0  0  0  0  2           0  0  0
    1.8436    2.3055    0.0038 O   0  0  0  0  0  2           0  0  0
    1.8589   -2.3010   -0.0429 O   0  0  0  0  0  2           0  0  0
    4.5741    1.6115   -0.0195 N   0  0  0  0  0  3           0  0  0
    3.5636    0.7086   -0.0107 N   0  0  1  0  0  3           0  0  0
    1.4533    0.0000    0.0000 N   0  0  2  0  0  3           0  0  0
   -2.1526   -1.2030    3.8551 N   0  0  1  0  0  3           0  0  0
   -4.7973   -2.0771    4.7386 N   0  0  2  0  0  3           0  0  0
    4.1783   -2.1003    6.8842 C   0  0  0  0  0  4           0  0  0
    5.9104   -1.0662    3.1503 C   0  0  0  0  0  4           0  0  0
    6.0806    0.2074    1.3612 C   0  0  0  0  0  4           0  0  0
    5.3184   -1.4195    4.4258 C   0  0  0  0  0  4           0  0  0
    3.7168   -0.9799    6.1939 C   0  0  0  0  0  4           0  0  0
    5.2046   -2.8834    6.3568 C   0  0  0  0  0  4           0  0  0
    6.9103   -1.6114    2.3690 C   0  0  0  0  0  4           0  0  0
    7.0218   -0.7901    1.2207 C   0  0  0  0  0  4           0  0  0
    4.2865   -0.6409    4.9649 C   0  0  0  0  0  4           0  0  0
    5.7735   -2.5426    5.1280 C   0  0  0  0  0  4           0  0  0
    2.2341    1.1446   -0.0000 C   0  0  0  0  0  4           0  0  0
    2.2342   -1.1360   -0.0240 C   0  0  0  0  0  4           0  0  0
    5.7141    1.3202    0.5336 C   0  0  0  0  0  4           0  0  0
    3.6927   -0.7256   -0.0236 C   0  0  0  0  0  4           0  0  0
   -2.7898   -2.3751    3.2465 C   0  0  0  0  0  4           0  0  0
   -2.5604   -1.0447    5.2546 C   0  0  0  0  0  4           0  0  0
   -4.3167   -2.2835    3.3665 C   0  0  0  0  0  4           0  0  0
   -4.0880   -0.9554    5.3674 C   0  0  0  0  0  4           0  0  0
    0.0000    0.0000   -0.0000 C   0  0  0  0  0  4           0  0  0
   -0.6976   -1.2030    3.6896 C   0  0  0  0  0  4           0  0  0
   -4.7155   -3.2969    5.5392 C   0  0  0  0  0  4           0  0  0
   -0.5556   -0.0000    1.4201 C   0  0  0  0  0  4           0  0  0
   -0.1407   -1.2030    2.2659 C   0  0  0  0  0  4           0  0  0
  1 10  1  0     0  0
  2 11  1  0     0  0
  2 12  1  0     0  0
  3 20  2  0     0  0
  4 21  2  0     0  0
  5  6  1  0     0  0
  5 22  2  0     0  0
  6 20  1  0     0  0
  6 23  1  0     0  0
  7 20  1  0     0  0
  7 21  1  0     0  0
  7 28  1  0     0  0
  8 24  1  0     0  0
  8 25  1  0     0  0
  8 29  1  0     0  0
  9 26  1  0     0  0
  9 27  1  0     0  0
  9 30  1  0     0  0
 10 14  1  0     0  0
 10 15  2  0     0  0
 11 13  1  0     0  0
 11 16  2  0     0  0
 12 17  2  0     0  0
 12 22  1  0     0  0
 13 18  1  0     0  0
 13 19  2  0     0  0
 14 18  2  0     0  0
 15 19  1  0     0  0
 16 17  1  0     0  0
 21 23  1  0     0  0
 24 26  1  0     0  0
 25 27  1  0     0  0
 28 31  1  0     0  0
 29 32  1  0     0  0
 31 32  1  0     0  0
M  END
> <standard_type>
pIC50

> <# Confs.>
25

> <canonical_smiles>
O=C(N1/N=C/C2=CC=C(C(C=C3)=CC=C3Cl)O2)N(CCCCN4CCN(C)CC4)C(C1)=O

> <standard_relation>
=

> <Publication_ID>
nan

> <predicted_activity_value>
nan

> <actual_activity_value>
0.25181197299379954

> <Compound>
Azimilide

> <standard_units>
uM

> hash
3828609077382895411

$$$$
3
XXILIB    08252103503D 0   0.00000     0.00000

 32 35  0     1  0            999 V2000
    3.4760    2.0181    8.5344 Cl  0  0  0  0  0  1           0  0  0
    5.4044    1.3057    2.1726 O   0  0  0  0  0  2           0  0  0
    1.8436    1.9985   -1.1495 O   0  0  0  0  0  2           0  0  0
    1.8589   -2.0142    1.1134 O   0  0  0  0  0  2           0  0  0
    4.5741    1.3859   -0.8226 N   0  0  0  0  0  3           0  0  0
    3.5636    0.6083   -0.3636 N   0  0  1  0  0  3           0  0  0
    1.4533    0.0000    0.0000 N   0  0  2  0  0  3           0  0  0
   -2.0066    2.7948    1.5193 N   0  0  1  0  0  3           0  0  0
   -2.9457    5.0242    3.1764 N   0  0  2  0  0  3           0  0  0
    4.1783    1.6232    7.0121 C   0  0  0  0  0  4           0  0  0
    5.9104    0.6518    3.2614 C   0  0  0  0  0  4           0  0  0
    6.0806    0.8603    1.0752 C   0  0  0  0  0  4           0  0  0
    5.3184    0.9836    4.5427 C   0  0  0  0  0  4           0  0  0
    3.7168    2.2483    5.8540 C   0  0  0  0  0  4           0  0  0
    5.2046    0.6813    6.9468 C   0  0  0  0  0  4           0  0  0
    6.9103   -0.2110    2.8574 C   0  0  0  0  0  4           0  0  0
    7.0218   -0.0739    1.4522 C   0  0  0  0  0  4           0  0  0
    4.2865    1.9275    4.6202 C   0  0  0  0  0  4           0  0  0
    5.7735    0.3620    5.7123 C   0  0  0  0  0  4           0  0  0
    2.2341    0.9912   -0.5723 C   0  0  0  0  0  4           0  0  0
    2.2342   -0.9958    0.5472 C   0  0  0  0  0  4           0  0  0
    5.7141    1.4101   -0.1980 C   0  0  0  0  0  4           0  0  0
    3.6927   -0.6402    0.3423 C   0  0  0  0  0  4           0  0  0
   -2.2714    4.1339    0.9728 C   0  0  0  0  0  4           0  0  0
   -2.7959    2.5936    2.7443 C   0  0  0  0  0  4           0  0  0
   -2.1070    5.2637    1.9967 C   0  0  0  0  0  4           0  0  0
   -2.6424    3.7194    3.7757 C   0  0  0  0  0  4           0  0  0
    0.0000    0.0000    0.0000 C   0  0  0  0  0  4           0  0  0
   -0.5735    2.5569    1.7031 C   0  0  0  0  0  4           0  0  0
   -2.7835    6.0972    4.1553 C   0  0  0  0  0  4           0  0  0
   -0.5556   -0.0000    1.4201 C   0  0  0  0  0  4           0  0  0
   -0.1407    1.2030    2.2659 C   0  0  0  0  0  4           0  0  0
  1 10  1  0     0  0
  2 11  1  0     0  0
  2 12  1  0     0  0
  3 20  2  0     0  0
  4 21  2  0     0  0
  5  6  1  0     0  0
  5 22  2  0     0  0
  6 20  1  0     0  0
  6 23  1  0     0  0
  7 20  1  0     0  0
  7 21  1  0     0  0
  7 28  1  0     0  0
  8 24  1  0     0  0
  8 25  1  0     0  0
  8 29  1  0     0  0
  9 26  1  0     0  0
  9 27  1  0     0  0
  9 30  1  0     0  0
 10 14  1  0     0  0
 10 15  2  0     0  0
 11 13  1  0     0  0
 11 16  2  0     0  0
 12 17  2  0     0  0
 12 22  1  0     0  0
 13 18  1  0     0  0
 13 19  2  0     0  0
 14 18  2  0     0  0
 15 19  1  0     0  0
 16 17  1  0     0  0
 21 23  1  0     0  0
 24 26  1  0     0  0
 25 27  1  0     0  0
 28 31  1  0     0  0
 29 32  1  0     0  0
 31 32  1  0     0  0
M  END
> <standard_type>
pIC50

> <# Confs.>
25

> <canonical_smiles>
O=C(N1/N=C/C2=CC=C(C(C=C3)=CC=C3Cl)O2)N(CCCCN4CCN(C)CC4)C(C1)=O

> <standard_relation>
=

> <Publication_ID>
nan

> <predicted_activity_value>
nan

> <actual_activity_value>
0.25181197299379954

> <Compound>
Azimilide

> <standard_units>
uM

> hash
3828609077382895411

$$$$
3
XXILIB    08252103503D 0   0.00000     0.00000

 32 35  0     1  0            999 V2000
    3.4760   -2.5195    8.4000 Cl  0  0  0  0  0  1           0  0  0
    5.4044    0.0445    2.5344 O   0  0  0  0  0  2           0  0  0
    1.8436    2.3055    0.0038 O   0  0  0  0  0  2           0  0  0
    1.8589   -2.3010   -0.0429 O   0  0  0  0  0  2           0  0  0
    4.5741    1.6115   -0.0195 N   0  0  0  0  0  3           0  0  0
    3.5636    0.7086   -0.0107 N   0  0  1  0  0  3           0  0  0
    1.4533    0.0000    0.0000 N   0  0  2  0  0  3           0  0  0
   -2.1526   -1.2030    3.8551 N   0  0  1  0  0  3           0  0  0
   -3.0749   -3.6147    5.2445 N   0  0  2  0  0  3           0  0  0
    4.1783   -2.1003    6.8842 C   0  0  0  0  0  4           0  0  0
    5.9104   -1.0662    3.1503 C   0  0  0  0  0  4           0  0  0
    6.0806    0.2074    1.3612 C   0  0  0  0  0  4           0  0  0
    5.3184   -1.4195    4.4258 C   0  0  0  0  0  4           0  0  0
    3.7168   -0.9799    6.1939 C   0  0  0  0  0  4           0  0  0
    5.2046   -2.8834    6.3568 C   0  0  0  0  0  4           0  0  0
    6.9103   -1.6114    2.3690 C   0  0  0  0  0  4           0  0  0
    7.0218   -0.7901    1.2207 C   0  0  0  0  0  4           0  0  0
    4.2865   -0.6409    4.9649 C   0  0  0  0  0  4           0  0  0
    5.7735   -2.5426    5.1280 C   0  0  0  0  0  4           0  0  0
    2.2341    1.1446   -0.0000 C   0  0  0  0  0  4           0  0  0
    2.2342   -1.1360   -0.0240 C   0  0  0  0  0  4           0  0  0
    5.7141    1.3202    0.5336 C   0  0  0  0  0  4           0  0  0
    3.6927   -0.7256   -0.0236 C   0  0  0  0  0  4           0  0  0
   -2.5401   -1.2030    5.2734 C   0  0  0  0  0  4           0  0  0
   -2.8218   -2.3120    3.1575 C   0  0  0  0  0  4           0  0  0
   -2.3550   -2.5590    5.9654 C   0  0  0  0  0  4           0  0  0
   -2.6466   -3.6740    3.8422 C   0  0  0  0  0  4           0  0  0
    0.0000    0.0000   -0.0000 C   0  0  0  0  0  4           0  0  0
   -0.6976   -1.2030    3.6896 C   0  0  0  0  0  4           0  0  0
   -2.8926   -4.9082    5.9000 C   0  0  0  0  0  4           0  0  0
   -0.5556   -0.0000    1.4201 C   0  0  0  0  0  4           0  0  0
   -0.1407   -1.2030    2.2659 C   0  0  0  0  0  4           0  0  0
  1 10  1  0     0  0
  2 11  1  0     0  0
  2 12  1  0     0  0
  3 20  2  0     0  0
  4 21  2  0     0  0
  5  6  1  0     0  0
  5 22  2  0     0  0
  6 20  1  0     0  0
  6 23  1  0     0  0
  7 20  1  0     0  0
  7 21  1  0     0  0
  7 28  1  0     0  0
  8 24  1  0     0  0
  8 25  1  0     0  0
  8 29  1  0     0  0
  9 26  1  0     0  0
  9 27  1  0     0  0
  9 30  1  0     0  0
 10 14  1  0     0  0
 10 15  2  0     0  0
 11 13  1  0     0  0
 11 16  2  0     0  0
 12 17  2  0     0  0
 12 22  1  0     0  0
 13 18  1  0     0  0
 13 19  2  0     0  0
 14 18  2  0     0  0
 15 19  1  0     0  0
 16 17  1  0     0  0
 21 23  1  0     0  0
 24 26  1  0     0  0
 25 27  1  0     0  0
 28 31  1  0     0  0
 29 32  1  0     0  0
 31 32  1  0     0  0
M  END
> <standard_type>
pIC50

> <# Confs.>
25

> <canonical_smiles>
O=C(N1/N=C/C2=CC=C(C(C=C3)=CC=C3Cl)O2)N(CCCCN4CCN(C)CC4)C(C1)=O

> <standard_relation>
=

> <Publication_ID>
nan

> <predicted_activity_value>
nan

> <actual_activity_value>
0.25181197299379954

> <Compound>
Azimilide

> <standard_units>
uM

> hash
3828609077382895411

$$$$
3
XXILIB    08252103503D 0   0.00000     0.00000

 32 35  0     1  0            999 V2000
    3.4760   -2.5195    8.4000 Cl  0  0  0  0  0  1           0  0  0
    5.4044    0.0445    2.5344 O   0  0  0  0  0  2           0  0  0
    1.8436    2.3055    0.0038 O   0  0  0  0  0  2           0  0  0
    1.8589   -2.3010   -0.0429 O   0  0  0  0  0  2           0  0  0
    4.5741    1.6115   -0.0195 N   0  0  0  0  0  3           0  0  0
    3.5636    0.7086   -0.0107 N   0  0  1  0  0  3           0  0  0
    1.4533    0.0000    0.0000 N   0  0  2  0  0  3           0  0  0
   -2.2845    1.1212    3.8034 N   0  0  1  0  0  3           0  0  0
   -2.6434    3.4125    5.5812 N   0  0  2  0  0  3           0  0  0
    4.1783   -2.1003    6.8842 C   0  0  0  0  0  4           0  0  0
    5.9104   -1.0662    3.1503 C   0  0  0  0  0  4           0  0  0
    6.0806    0.2074    1.3612 C   0  0  0  0  0  4           0  0  0
    5.3184   -1.4195    4.4258 C   0  0  0  0  0  4           0  0  0
    3.7168   -0.9799    6.1939 C   0  0  0  0  0  4           0  0  0
    5.2046   -2.8834    6.3568 C   0  0  0  0  0  4           0  0  0
    6.9103   -1.6114    2.3690 C   0  0  0  0  0  4           0  0  0
    7.0218   -0.7901    1.2207 C   0  0  0  0  0  4           0  0  0
    4.2865   -0.6409    4.9649 C   0  0  0  0  0  4           0  0  0
    5.7735   -2.5426    5.1280 C   0  0  0  0  0  4           0  0  0
    2.2341    1.1446   -0.0000 C   0  0  0  0  0  4           0  0  0
    2.2342   -1.1360   -0.0240 C   0  0  0  0  0  4           0  0  0
    5.7141    1.3202    0.5336 C   0  0  0  0  0  4           0  0  0
    3.6927   -0.7256   -0.0236 C   0  0  0  0  0  4           0  0  0
   -2.7283    2.4132    3.2706 C   0  0  0  0  0  4           0  0  0
   -2.7464    0.9294    5.1818 C   0  0  0  0  0  4           0  0  0
   -2.2561    3.5610    4.1727 C   0  0  0  0  0  4           0  0  0
   -2.2722    2.0812    6.0778 C   0  0  0  0  0  4           0  0  0
    0.0000    0.0000    0.0000 C   0  0  0  0  0  4           0  0  0
   -2.6381    0.0000    2.9305 C   0  0  0  0  0  4           0  0  0
   -4.0593    3.7038    5.7960 C   0  0  0  0  0  4           0  0  0
   -0.5556    0.0000    1.4201 C   0  0  0  0  0  4           0  0  0
   -2.0811   -0.0000    1.5068 C   0  0  0  0  0  4           0  0  0
  1 10  1  0     0  0
  2 11  1  0     0  0
  2 12  1  0     0  0
  3 20  2  0     0  0
  4 21  2  0     0  0
  5  6  1  0     0  0
  5 22  2  0     0  0
  6 20  1  0     0  0
  6 23  1  0     0  0
  7 20  1  0     0  0
  7 21  1  0     0  0
  7 28  1  0     0  0
  8 24  1  0     0  0
  8 25  1  0     0  0
  8 29  1  0     0  0
  9 26  1  0     0  0
  9 27  1  0     0  0
  9 30  1  0     0  0
 10 14  1  0     0  0
 10 15  2  0     0  0
 11 13  1  0     0  0
 11 16  2  0     0  0
 12 17  2  0     0  0
 12 22  1  0     0  0
 13 18  1  0     0  0
 13 19  2  0     0  0
 14 18  2  0     0  0
 15 19  1  0     0  0
 16 17  1  0     0  0
 21 23  1  0     0  0
 24 26  1  0     0  0
 25 27  1  0     0  0
 28 31  1  0     0  0
 29 32  1  0     0  0
 31 32  1  0     0  0
M  END
> <standard_type>
pIC50

> <# Confs.>
25

> <canonical_smiles>
O=C(N1/N=C/C2=CC=C(C(C=C3)=CC=C3Cl)O2)N(CCCCN4CCN(C)CC4)C(C1)=O

> <standard_relation>
=

> <Publication_ID>
nan

> <predicted_activity_value>
nan

> <actual_activity_value>
0.25181197299379954

> <Compound>
Azimilide

> <standard_units>
uM

> hash
3828609077382895411

$$$$
3
XXILIB    08252103503D 0   0.00000     0.00000

 32 35  0     1  0            999 V2000
    3.4760    2.5195   -8.4000 Cl  0  0  0  0  0  1           0  0  0
    5.4044   -0.0445   -2.5344 O   0  0  0  0  0  2           0  0  0
    1.8436   -2.3055   -0.0038 O   0  0  0  0  0  2           0  0  0
    1.8589    2.3010    0.0429 O   0  0  0  0  0  2           0  0  0
    4.5741   -1.6115    0.0195 N   0  0  0  0  0  3           0  0  0
    3.5636   -0.7086    0.0107 N   0  0  1  0  0  3           0  0  0
    1.4533    0.0000    0.0000 N   0  0  2  0  0  3           0  0  0
   -2.2845    1.1212    3.8034 N   0  0  1  0  0  3           0  0  0
   -2.6434    3.4125    5.5812 N   0  0  2  0  0  3           0  0  0
    4.1783    2.1003   -6.8842 C   0  0  0  0  0  4           0  0  0
    5.9104    1.0662   -3.1503 C   0  0  0  0  0  4           0  0  0
    6.0806   -0.2074   -1.3612 C   0  0  0  0  0  4           0  0  0
    5.3184    1.4195   -4.4258 C   0  0  0  0  0  4           0  0  0
    3.7168    0.9799   -6.1939 C   0  0  0  0  0  4           0  0  0
    5.2046    2.8834   -6.3568 C   0  0  0  0  0  4           0  0  0
    6.9103    1.6114   -2.3690 C   0  0  0  0  0  4           0  0  0
    7.0218    0.7901   -1.2207 C   0  0  0  0  0  4           0  0  0
    4.2865    0.6409   -4.9649 C   0  0  0  0  0  4           0  0  0
    5.7735    2.5426   -5.1280 C   0  0  0  0  0  4           0  0  0
    2.2341   -1.1446    0.0000 C   0  0  0  0  0  4           0  0  0
    2.2342    1.1360    0.0240 C   0  0  0  0  0  4           0  0  0
    5.7141   -1.3202   -0.5336 C   0  0  0  0  0  4           0  0  0
    3.6927    0.7256    0.0236 C   0  0  0  0  0  4           0  0  0
   -2.7283    2.4132    3.2706 C   0  0  0  0  0  4           0  0  0
   -2.7464    0.9294    5.1818 C   0  0  0  0  0  4           0  0  0
   -2.2561    3.5610    4.1727 C   0  0  0  0  0  4           0  0  0
   -2.2722    2.0812    6.0778 C   0  0  0  0  0  4           0  0  0
    0.0000    0.0000    0.0000 C   0  0  0  0  0  4           0  0  0
   -2.6381    0.0000    2.9305 C   0  0  0  0  0  4           0  0  0
   -4.0593    3.7038    5.7960 C   0  0  0  0  0  4           0  0  0
   -0.5556    0.0000    1.4201 C   0  0  0  0  0  4           0  0  0
   -2.0811   -0.0000    1.5068 C   0  0  0  0  0  4           0  0  0
  1 10  1  0     0  0
  2 11  1  0     0  0
  2 12  1  0     0  0
  3 20  2  0     0  0
  4 21  2  0     0  0
  5  6  1  0     0  0
  5 22  2  0     0  0
  6 20  1  0     0  0
  6 23  1  0     0  0
  7 20  1  0     0  0
  7 21  1  0     0  0
  7 28  1  0     0  0
  8 24  1  0     0  0
  8 25  1  0     0  0
  8 29  1  0     0  0
  9 26  1  0     0  0
  9 27  1  0     0  0
  9 30  1  0     0  0
 10 14  1  0     0  0
 10 15  2  0     0  0
 11 13  1  0     0  0
 11 16  2  0     0  0
 12 17  2  0     0  0
 12 22  1  0     0  0
 13 18  1  0     0  0
 13 19  2  0     0  0
 14 18  2  0     0  0
 15 19  1  0     0  0
 16 17  1  0     0  0
 21 23  1  0     0  0
 24 26  1  0     0  0
 25 27  1  0     0  0
 28 31  1  0     0  0
 29 32  1  0     0  0
 31 32  1  0     0  0
M  END
> <standard_type>
pIC50

> <# Confs.>
25

> <canonical_smiles>
O=C(N1/N=C/C2=CC=C(C(C=C3)=CC=C3Cl)O2)N(CCCCN4CCN(C)CC4)C(C1)=O

> <standard_relation>
=

> <Publication_ID>
nan

> <predicted_activity_value>
nan

> <actual_activity_value>
0.25181197299379954

> <Compound>
Azimilide

> <standard_units>
uM

> hash
3828609077382895411

$$$$
3
XXILIB    08252103503D 0   0.00000     0.00000

 32 35  0     1  0            999 V2000
    3.4760    2.0181    8.5344 Cl  0  0  0  0  0  1           0  0  0
    5.4044    1.3057    2.1726 O   0  0  0  0  0  2           0  0  0
    1.8436    1.9985   -1.1495 O   0  0  0  0  0  2           0  0  0
    1.8589   -2.0142    1.1134 O   0  0  0  0  0  2           0  0  0
    4.5741    1.3859   -0.8226 N   0  0  0  0  0  3           0  0  0
    3.5636    0.6083   -0.3636 N   0  0  1  0  0  3           0  0  0
    1.4533    0.0000    0.0000 N   0  0  2  0  0  3           0  0  0
   -0.2125    3.7586    2.4579 N   0  0  1  0  0  3           0  0  0
    1.5465    5.5150    0.9027 N   0  0  2  0  0  3           0  0  0
    4.1783    1.6232    7.0121 C   0  0  0  0  0  4           0  0  0
    5.9104    0.6518    3.2614 C   0  0  0  0  0  4           0  0  0
    6.0806    0.8603    1.0752 C   0  0  0  0  0  4           0  0  0
    5.3184    0.9836    4.5427 C   0  0  0  0  0  4           0  0  0
    3.7168    2.2483    5.8540 C   0  0  0  0  0  4           0  0  0
    5.2046    0.6813    6.9468 C   0  0  0  0  0  4           0  0  0
    6.9103   -0.2110    2.8574 C   0  0  0  0  0  4           0  0  0
    7.0218   -0.0739    1.4522 C   0  0  0  0  0  4           0  0  0
    4.2865    1.9275    4.6202 C   0  0  0  0  0  4           0  0  0
    5.7735    0.3620    5.7123 C   0  0  0  0  0  4           0  0  0
    2.2341    0.9912   -0.5723 C   0  0  0  0  0  4           0  0  0
    2.2342   -0.9958    0.5472 C   0  0  0  0  0  4           0  0  0
    5.7141    1.4101   -0.1980 C   0  0  0  0  0  4           0  0  0
    3.6927   -0.6402    0.3423 C   0  0  0  0  0  4           0  0  0
   -0.6933    4.9817    1.7984 C   0  0  0  0  0  4           0  0  0
    1.2298    3.8723    2.7242 C   0  0  0  0  0  4           0  0  0
    0.1250    5.3819    0.5647 C   0  0  0  0  0  4           0  0  0
    2.0593    4.2755    1.4979 C   0  0  0  0  0  4           0  0  0
    0.0000    0.0000    0.0000 C   0  0  0  0  0  4           0  0  0
   -0.5735    2.5569    1.7031 C   0  0  0  0  0  4           0  0  0
    2.3273    5.8894   -0.2746 C   0  0  0  0  0  4           0  0  0
   -0.5556    0.0000    1.4201 C   0  0  0  0  0  4           0  0  0
   -0.1407    1.2030    2.2659 C   0  0  0  0  0  4           0  0  0
  1 10  1  0     0  0
  2 11  1  0     0  0
  2 12  1  0     0  0
  3 20  2  0     0  0
  4 21  2  0     0  0
  5  6  1  0     0  0
  5 22  2  0     0  0
  6 20  1  0     0  0
  6 23  1  0     0  0
  7 20  1  0     0  0
  7 21  1  0     0  0
  7 28  1  0     0  0
  8 24  1  0     0  0
  8 25  1  0     0  0
  8 29  1  0     0  0
  9 26  1  0     0  0
  9 27  1  0     0  0
  9 30  1  0     0  0
 10 14  1  0     0  0
 10 15  2  0     0  0
 11 13  1  0     0  0
 11 16  2  0     0  0
 12 17  2  0     0  0
 12 22  1  0     0  0
 13 18  1  0     0  0
 13 19  2  0     0  0
 14 18  2  0     0  0
 15 19  1  0     0  0
 16 17  1  0     0  0
 21 23  1  0     0  0
 24 26  1  0     0  0
 25 27  1  0     0  0
 28 31  1  0     0  0
 29 32  1  0     0  0
 31 32  1  0     0  0
M  END
> <standard_type>
pIC50

> <# Confs.>
25

> <canonical_smiles>
O=C(N1/N=C/C2=CC=C(C(C=C3)=CC=C3Cl)O2)N(CCCCN4CCN(C)CC4)C(C1)=O

> <standard_relation>
=

> <Publication_ID>
nan

> <predicted_activity_value>
nan

> <actual_activity_value>
0.25181197299379954

> <Compound>
Azimilide

> <standard_units>
uM

> hash
3828609077382895411

$$$$
3
XXILIB    08252103503D 0   0.00000     0.00000

 32 35  0     1  0            999 V2000
    3.4760   -2.5195    8.4000 Cl  0  0  0  0  0  1           0  0  0
    5.4044    0.0445    2.5344 O   0  0  0  0  0  2           0  0  0
    1.8436    2.3055    0.0038 O   0  0  0  0  0  2           0  0  0
    1.8589   -2.3010   -0.0429 O   0  0  0  0  0  2           0  0  0
    4.5741    1.6115   -0.0195 N   0  0  0  0  0  3           0  0  0
    3.5636    0.7086   -0.0107 N   0  0  1  0  0  3           0  0  0
    1.4533    0.0000    0.0000 N   0  0  2  0  0  3           0  0  0
   -2.2845   -1.1212    3.8034 N   0  0  1  0  0  3           0  0  0
   -2.6351   -3.4898    5.4785 N   0  0  2  0  0  3           0  0  0
    4.1783   -2.1003    6.8842 C   0  0  0  0  0  4           0  0  0
    5.9104   -1.0662    3.1503 C   0  0  0  0  0  4           0  0  0
    6.0806    0.2074    1.3612 C   0  0  0  0  0  4           0  0  0
    5.3184   -1.4195    4.4258 C   0  0  0  0  0  4           0  0  0
    3.7168   -0.9799    6.1939 C   0  0  0  0  0  4           0  0  0
    5.2046   -2.8834    6.3568 C   0  0  0  0  0  4           0  0  0
    6.9103   -1.6114    2.3690 C   0  0  0  0  0  4           0  0  0
    7.0218   -0.7901    1.2207 C   0  0  0  0  0  4           0  0  0
    4.2865   -0.6409    4.9649 C   0  0  0  0  0  4           0  0  0
    5.7735   -2.5426    5.1280 C   0  0  0  0  0  4           0  0  0
    2.2341    1.1446   -0.0000 C   0  0  0  0  0  4           0  0  0
    2.2342   -1.1360   -0.0240 C   0  0  0  0  0  4           0  0  0
    5.7141    1.3202    0.5336 C   0  0  0  0  0  4           0  0  0
    3.6927   -0.7256   -0.0236 C   0  0  0  0  0  4           0  0  0
   -2.8786   -1.0058    5.1390 C   0  0  0  0  0  4           0  0  0
   -2.5869   -2.4226    3.1994 C   0  0  0  0  0  4           0  0  0
   -2.4064   -2.1531    6.0417 C   0  0  0  0  0  4           0  0  0
   -2.1137   -3.5651    4.1077 C   0  0  0  0  0  4           0  0  0
    0.0000    0.0000    0.0000 C   0  0  0  0  0  4           0  0  0
   -2.6381   -0.0000    2.9305 C   0  0  0  0  0  4           0  0  0
   -4.0398   -3.8857    5.5545 C   0  0  0  0  0  4           0  0  0
   -0.5556    0.0000    1.4201 C   0  0  0  0  0  4           0  0  0
   -2.0811   -0.0000    1.5068 C   0  0  0  0  0  4           0  0  0
  1 10  1  0     0  0
  2 11  1  0     0  0
  2 12  1  0     0  0
  3 20  2  0     0  0
  4 21  2  0     0  0
  5  6  1  0     0  0
  5 22  2  0     0  0
  6 20  1  0     0  0
  6 23  1  0     0  0
  7 20  1  0     0  0
  7 21  1  0     0  0
  7 28  1  0     0  0
  8 24  1  0     0  0
  8 25  1  0     0  0
  8 29  1  0     0  0
  9 26  1  0     0  0
  9 27  1  0     0  0
  9 30  1  0     0  0
 10 14  1  0     0  0
 10 15  2  0     0  0
 11 13  1  0     0  0
 11 16  2  0     0  0
 12 17  2  0     0  0
 12 22  1  0     0  0
 13 18  1  0     0  0
 13 19  2  0     0  0
 14 18  2  0     0  0
 15 19  1  0     0  0
 16 17  1  0     0  0
 21 23  1  0     0  0
 24 26  1  0     0  0
 25 27  1  0     0  0
 28 31  1  0     0  0
 29 32  1  0     0  0
 31 32  1  0     0  0
M  END
> <standard_type>
pIC50

> <# Confs.>
25

> <canonical_smiles>
O=C(N1/N=C/C2=CC=C(C(C=C3)=CC=C3Cl)O2)N(CCCCN4CCN(C)CC4)C(C1)=O

> <standard_relation>
=

> <Publication_ID>
nan

> <predicted_activity_value>
nan

> <actual_activity_value>
0.25181197299379954

> <Compound>
Azimilide

> <standard_units>
uM

> hash
3828609077382895411

$$$$
3
XXILIB    08252103503D 0   0.00000     0.00000

 32 35  0     1  0            999 V2000
    3.4754   -2.5186    8.4000 Cl  0  0  0  0  0  1           0  0  0
    5.4044    0.0445    2.5344 O   0  0  0  0  0  2           0  0  0
    1.8436    2.3055    0.0038 O   0  0  0  0  0  2           0  0  0
    1.8589   -2.3010   -0.0429 O   0  0  0  0  0  2           0  0  0
    4.5741    1.6115   -0.0195 N   0  0  0  0  0  3           0  0  0
    3.5636    0.7086   -0.0107 N   0  0  1  0  0  3           0  0  0
    1.4533    0.0000    0.0000 N   0  0  2  0  0  3           0  0  0
   -0.3441   -2.3242    4.5626 N   0  0  1  0  0  3           0  0  0
   -2.7316   -3.7149    5.5441 N   0  0  2  0  0  3           0  0  0
    4.1781   -2.1000    6.8842 C   0  0  0  0  0  4           0  0  0
    5.9104   -1.0662    3.1503 C   0  0  0  0  0  4           0  0  0
    6.0806    0.2074    1.3612 C   0  0  0  0  0  4           0  0  0
    5.3184   -1.4195    4.4258 C   0  0  0  0  0  4           0  0  0
    3.4076   -1.4510    5.9199 C   0  0  0  0  0  4           0  0  0
    5.5135   -2.4118    6.6308 C   0  0  0  0  0  4           0  0  0
    6.9103   -1.6114    2.3690 C   0  0  0  0  0  4           0  0  0
    7.0218   -0.7901    1.2207 C   0  0  0  0  0  4           0  0  0
    3.9780   -1.1121    4.6912 C   0  0  0  0  0  4           0  0  0
    6.0824   -2.0717    5.4019 C   0  0  0  0  0  4           0  0  0
    2.2341    1.1446   -0.0000 C   0  0  0  0  0  4           0  0  0
    2.2342   -1.1360   -0.0240 C   0  0  0  0  0  4           0  0  0
    5.7141    1.3202    0.5336 C   0  0  0  0  0  4           0  0  0
    3.6927   -0.7256   -0.0236 C   0  0  0  0  0  4           0  0  0
   -0.7977   -3.6093    4.0105 C   0  0  0  0  0  4           0  0  0
   -0.8386   -2.1733    5.9398 C   0  0  0  0  0  4           0  0  0
   -2.3074   -3.8423    4.1454 C   0  0  0  0  0  4           0  0  0
   -2.3478   -2.4073    6.0884 C   0  0  0  0  0  4           0  0  0
    0.0000    0.0000    0.0000 C   0  0  0  0  0  4           0  0  0
   -0.6976   -1.2030    3.6896 C   0  0  0  0  0  4           0  0  0
   -4.1716   -3.9298    5.6715 C   0  0  0  0  0  4           0  0  0
   -0.5556   -0.0000    1.4201 C   0  0  0  0  0  4           0  0  0
   -0.1407   -1.2030    2.2659 C   0  0  0  0  0  4           0  0  0
  1 10  1  0     0  0
  2 11  1  0     0  0
  2 12  1  0     0  0
  3 20  2  0     0  0
  4 21  2  0     0  0
  5  6  1  0     0  0
  5 22  2  0     0  0
  6 20  1  0     0  0
  6 23  1  0     0  0
  7 20  1  0     0  0
  7 21  1  0     0  0
  7 28  1  0     0  0
  8 24  1  0     0  0
  8 25  1  0     0  0
  8 29  1  0     0  0
  9 26  1  0     0  0
  9 27  1  0     0  0
  9 30  1  0     0  0
 10 14  1  0     0  0
 10 15  2  0     0  0
 11 13  1  0     0  0
 11 16  2  0     0  0
 12 17  2  0     0  0
 12 22  1  0     0  0
 13 18  1  0     0  0
 13 19  2  0     0  0
 14 18  2  0     0  0
 15 19  1  0     0  0
 16 17  1  0     0  0
 21 23  1  0     0  0
 24 26  1  0     0  0
 25 27  1  0     0  0
 28 31  1  0     0  0
 29 32  1  0     0  0
 31 32  1  0     0  0
M  END
> <standard_type>
pIC50

> <# Confs.>
25

> <canonical_smiles>
O=C(N1/N=C/C2=CC=C(C(C=C3)=CC=C3Cl)O2)N(CCCCN4CCN(C)CC4)C(C1)=O

> <standard_relation>
=

> <Publication_ID>
nan

> <predicted_activity_value>
nan

> <actual_activity_value>
0.25181197299379954

> <Compound>
Azimilide

> <standard_units>
uM

> hash
3828609077382895411

$$$$
3
XXILIB    08252103503D 0   0.00000     0.00000

 32 35  0     1  0            999 V2000
    3.4760   -2.5195    8.4000 Cl  0  0  0  0  0  1           0  0  0
    5.4044    0.0445    2.5344 O   0  0  0  0  0  2           0  0  0
    1.8436    2.3055    0.0038 O   0  0  0  0  0  2           0  0  0
    1.8589   -2.3010   -0.0429 O   0  0  0  0  0  2           0  0  0
    4.5741    1.6115   -0.0195 N   0  0  0  0  0  3           0  0  0
    3.5636    0.7086   -0.0107 N   0  0  1  0  0  3           0  0  0
    1.4533    0.0000    0.0000 N   0  0  2  0  0  3           0  0  0
   -2.1526    1.2030    3.8551 N   0  0  1  0  0  3           0  0  0
   -3.0553    3.5142    5.4174 N   0  0  2  0  0  3           0  0  0
    4.1783   -2.1003    6.8842 C   0  0  0  0  0  4           0  0  0
    5.9104   -1.0662    3.1503 C   0  0  0  0  0  4           0  0  0
    6.0806    0.2074    1.3612 C   0  0  0  0  0  4           0  0  0
    5.3184   -1.4195    4.4258 C   0  0  0  0  0  4           0  0  0
    3.7168   -0.9799    6.1939 C   0  0  0  0  0  4           0  0  0
    5.2046   -2.8834    6.3568 C   0  0  0  0  0  4           0  0  0
    6.9103   -1.6114    2.3690 C   0  0  0  0  0  4           0  0  0
    7.0218   -0.7901    1.2207 C   0  0  0  0  0  4           0  0  0
    4.2865   -0.6409    4.9649 C   0  0  0  0  0  4           0  0  0
    5.7735   -2.5426    5.1280 C   0  0  0  0  0  4           0  0  0
    2.2341    1.1446   -0.0000 C   0  0  0  0  0  4           0  0  0
    2.2342   -1.1360   -0.0240 C   0  0  0  0  0  4           0  0  0
    5.7141    1.3202    0.5336 C   0  0  0  0  0  4           0  0  0
    3.6927   -0.7256   -0.0236 C   0  0  0  0  0  4           0  0  0
   -2.7715    2.3856    3.2383 C   0  0  0  0  0  4           0  0  0
   -2.5830    1.0918    5.2574 C   0  0  0  0  0  4           0  0  0
   -2.5738    3.6771    4.0412 C   0  0  0  0  0  4           0  0  0
   -2.3932    2.3791    6.0706 C   0  0  0  0  0  4           0  0  0
    0.0000   -0.0000    0.0000 C   0  0  0  0  0  4           0  0  0
   -0.6976    1.2030    3.6896 C   0  0  0  0  0  4           0  0  0
   -2.8602    4.7428    6.1846 C   0  0  0  0  0  4           0  0  0
   -0.5556   -0.0000    1.4201 C   0  0  0  0  0  4           0  0  0
   -0.1407    1.2030    2.2659 C   0  0  0  0  0  4           0  0  0
  1 10  1  0     0  0
  2 11  1  0     0  0
  2 12  1  0     0  0
  3 20  2  0     0  0
  4 21  2  0     0  0
  5  6  1  0     0  0
  5 22  2  0     0  0
  6 20  1  0     0  0
  6 23  1  0     0  0
  7 20  1  0     0  0
  7 21  1  0     0  0
  7 28  1  0     0  0
  8 24  1  0     0  0
  8 25  1  0     0  0
  8 29  1  0     0  0
  9 26  1  0     0  0
  9 27  1  0     0  0
  9 30  1  0     0  0
 10 14  1  0     0  0
 10 15  2  0     0  0
 11 13  1  0     0  0
 11 16  2  0     0  0
 12 17  2  0     0  0
 12 22  1  0     0  0
 13 18  1  0     0  0
 13 19  2  0     0  0
 14 18  2  0     0  0
 15 19  1  0     0  0
 16 17  1  0     0  0
 21 23  1  0     0  0
 24 26  1  0     0  0
 25 27  1  0     0  0
 28 31  1  0     0  0
 29 32  1  0     0  0
 31 32  1  0     0  0
M  END
> <standard_type>
pIC50

> <# Confs.>
25

> <canonical_smiles>
O=C(N1/N=C/C2=CC=C(C(C=C3)=CC=C3Cl)O2)N(CCCCN4CCN(C)CC4)C(C1)=O

> <standard_relation>
=

> <Publication_ID>
nan

> <predicted_activity_value>
nan

> <actual_activity_value>
0.25181197299379954

> <Compound>
Azimilide

> <standard_units>
uM

> hash
3828609077382895411

$$$$
3
XXILIB    08252103503D 0   0.00000     0.00000

 32 35  0     1  0            999 V2000
    3.4760   -6.3819    6.0149 Cl  0  0  0  0  0  1           0  0  0
    5.4044   -1.2287    2.2171 O   0  0  0  0  0  2           0  0  0
    1.8436    1.9947    1.1560 O   0  0  0  0  0  2           0  0  0
    1.8589   -1.9713   -1.1877 O   0  0  0  0  0  2           0  0  0
    4.5741    1.4054    0.7889 N   0  0  0  0  0  3           0  0  0
    3.5636    0.6190    0.3450 N   0  0  1  0  0  3           0  0  0
    1.4533    0.0000    0.0000 N   0  0  2  0  0  3           0  0  0
   -2.0066   -2.7948    1.5193 N   0  0  1  0  0  3           0  0  0
   -2.9056   -5.1466    3.0222 N   0  0  2  0  0  3           0  0  0
    4.1783   -5.2610    4.9117 C   0  0  0  0  0  4           0  0  0
    5.9104   -2.4985    2.1952 C   0  0  0  0  0  4           0  0  0
    6.0806   -0.5010    1.2826 C   0  0  0  0  0  4           0  0  0
    5.3184   -3.4423    3.1231 C   0  0  0  0  0  4           0  0  0
    3.7168   -3.9456    4.8741 C   0  0  0  0  0  4           0  0  0
    5.2046   -5.6755    4.0634 C   0  0  0  0  0  4           0  0  0
    6.9103   -2.5801    1.2459 C   0  0  0  0  0  4           0  0  0
    7.0218   -1.2946    0.6621 C   0  0  0  0  0  4           0  0  0
    4.2865   -3.0375    3.9793 C   0  0  0  0  0  4           0  0  0
    5.7735   -4.7660    3.1697 C   0  0  0  0  0  4           0  0  0
    2.2341    0.9912    0.5723 C   0  0  0  0  0  4           0  0  0
    2.2342   -0.9718   -0.5888 C   0  0  0  0  0  4           0  0  0
    5.7141    0.8765    1.1222 C   0  0  0  0  0  4           0  0  0
    3.6927   -0.6165   -0.3833 C   0  0  0  0  0  4           0  0  0
   -2.7434   -2.6927    2.7877 C   0  0  0  0  0  4           0  0  0
   -2.3089   -4.0807    0.8717 C   0  0  0  0  0  4           0  0  0
   -2.5533   -3.9010    3.7127 C   0  0  0  0  0  4           0  0  0
   -2.1256   -5.2975    1.7884 C   0  0  0  0  0  4           0  0  0
    0.0000    0.0000    0.0000 C   0  0  0  0  0  4           0  0  0
   -0.5735   -2.5569    1.7031 C   0  0  0  0  0  4           0  0  0
   -2.7175   -6.2987    3.9015 C   0  0  0  0  0  4           0  0  0
   -0.5556    0.0000    1.4201 C   0  0  0  0  0  4           0  0  0
   -0.1407   -1.2030    2.2659 C   0  0  0  0  0  4           0  0  0
  1 10  1  0     0  0
  2 11  1  0     0  0
  2 12  1  0     0  0
  3 20  2  0     0  0
  4 21  2  0     0  0
  5  6  1  0     0  0
  5 22  2  0     0  0
  6 20  1  0     0  0
  6 23  1  0     0  0
  7 20  1  0     0  0
  7 21  1  0     0  0
  7 28  1  0     0  0
  8 24  1  0     0  0
  8 25  1  0     0  0
  8 29  1  0     0  0
  9 26  1  0     0  0
  9 27  1  0     0  0
  9 30  1  0     0  0
 10 14  1  0     0  0
 10 15  2  0     0  0
 11 13  1  0     0  0
 11 16  2  0     0  0
 12 17  2  0     0  0
 12 22  1  0     0  0
 13 18  1  0     0  0
 13 19  2  0     0  0
 14 18  2  0     0  0
 15 19  1  0     0  0
 16 17  1  0     0  0
 21 23  1  0     0  0
 24 26  1  0     0  0
 25 27  1  0     0  0
 28 31  1  0     0  0
 29 32  1  0     0  0
 31 32  1  0     0  0
M  END
> <standard_type>
pIC50

> <# Confs.>
25

> <canonical_smiles>
O=C(N1/N=C/C2=CC=C(C(C=C3)=CC=C3Cl)O2)N(CCCCN4CCN(C)CC4)C(C1)=O

> <standard_relation>
=

> <Publication_ID>
nan

> <predicted_activity_value>
nan

> <actual_activity_value>
0.25181197299379954

> <Compound>
Azimilide

> <standard_units>
uM

> hash
3828609077382895411

$$$$
3
XXILIB    08252103503D 0   0.00000     0.00000

 32 35  0     1  0            999 V2000
    3.4760    2.5195   -8.4000 Cl  0  0  0  0  0  1           0  0  0
    5.4044   -0.0445   -2.5344 O   0  0  0  0  0  2           0  0  0
    1.8436   -2.3055   -0.0038 O   0  0  0  0  0  2           0  0  0
    1.8589    2.3010    0.0429 O   0  0  0  0  0  2           0  0  0
    4.5741   -1.6115    0.0195 N   0  0  0  0  0  3           0  0  0
    3.5636   -0.7086    0.0107 N   0  0  1  0  0  3           0  0  0
    1.4533    0.0000    0.0000 N   0  0  2  0  0  3           0  0  0
   -2.1526   -1.2030    3.8551 N   0  0  1  0  0  3           0  0  0
   -4.7973   -2.0771    4.7386 N   0  0  2  0  0  3           0  0  0
    4.1783    2.1003   -6.8842 C   0  0  0  0  0  4           0  0  0
    5.9104    1.0662   -3.1503 C   0  0  0  0  0  4           0  0  0
    6.0806   -0.2074   -1.3612 C   0  0  0  0  0  4           0  0  0
    5.3184    1.4195   -4.4258 C   0  0  0  0  0  4           0  0  0
    3.7168    0.9799   -6.1939 C   0  0  0  0  0  4           0  0  0
    5.2046    2.8834   -6.3568 C   0  0  0  0  0  4           0  0  0
    6.9103    1.6114   -2.3690 C   0  0  0  0  0  4           0  0  0
    7.0218    0.7901   -1.2207 C   0  0  0  0  0  4           0  0  0
    4.2865    0.6409   -4.9649 C   0  0  0  0  0  4           0  0  0
    5.7735    2.5426   -5.1280 C   0  0  0  0  0  4           0  0  0
    2.2341   -1.1446    0.0000 C   0  0  0  0  0  4           0  0  0
    2.2342    1.1360    0.0240 C   0  0  0  0  0  4           0  0  0
    5.7141   -1.3202   -0.5336 C   0  0  0  0  0  4           0  0  0
    3.6927    0.7256    0.0236 C   0  0  0  0  0  4           0  0  0
   -2.7898   -2.3751    3.2465 C   0  0  0  0  0  4           0  0  0
   -2.5604   -1.0447    5.2546 C   0  0  0  0  0  4           0  0  0
   -4.3167   -2.2835    3.3665 C   0  0  0  0  0  4           0  0  0
   -4.0880   -0.9554    5.3674 C   0  0  0  0  0  4           0  0  0
    0.0000    0.0000   -0.0000 C   0  0  0  0  0  4           0  0  0
   -0.6976   -1.2030    3.6896 C   0  0  0  0  0  4           0  0  0
   -4.7155   -3.2969    5.5392 C   0  0  0  0  0  4           0  0  0
   -0.5556   -0.0000    1.4201 C   0  0  0  0  0  4           0  0  0
   -0.1407   -1.2030    2.2659 C   0  0  0  0  0  4           0  0  0
  1 10  1  0     0  0
  2 11  1  0     0  0
  2 12  1  0     0  0
  3 20  2  0     0  0
  4 21  2  0     0  0
  5  6  1  0     0  0
  5 22  2  0     0  0
  6 20  1  0     0  0
  6 23  1  0     0  0
  7 20  1  0     0  0
  7 21  1  0     0  0
  7 28  1  0     0  0
  8 24  1  0     0  0
  8 25  1  0     0  0
  8 29  1  0     0  0
  9 26  1  0     0  0
  9 27  1  0     0  0
  9 30  1  0     0  0
 10 14  1  0     0  0
 10 15  2  0     0  0
 11 13  1  0     0  0
 11 16  2  0     0  0
 12 17  2  0     0  0
 12 22  1  0     0  0
 13 18  1  0     0  0
 13 19  2  0     0  0
 14 18  2  0     0  0
 15 19  1  0     0  0
 16 17  1  0     0  0
 21 23  1  0     0  0
 24 26  1  0     0  0
 25 27  1  0     0  0
 28 31  1  0     0  0
 29 32  1  0     0  0
 31 32  1  0     0  0
M  END
> <standard_type>
pIC50

> <# Confs.>
25

> <canonical_smiles>
O=C(N1/N=C/C2=CC=C(C(C=C3)=CC=C3Cl)O2)N(CCCCN4CCN(C)CC4)C(C1)=O

> <standard_relation>
=

> <Publication_ID>
nan

> <predicted_activity_value>
nan

> <actual_activity_value>
0.25181197299379954

> <Compound>
Azimilide

> <standard_units>
uM

> hash
3828609077382895411

$$$$
3
XXILIB    08252103503D 0   0.00000     0.00000

 32 35  0     1  0            999 V2000
    3.4760    2.5195   -8.4000 Cl  0  0  0  0  0  1           0  0  0
    5.4044   -0.0445   -2.5344 O   0  0  0  0  0  2           0  0  0
    1.8436   -2.3055   -0.0038 O   0  0  0  0  0  2           0  0  0
    1.8589    2.3010    0.0429 O   0  0  0  0  0  2           0  0  0
    4.5741   -1.6115    0.0195 N   0  0  0  0  0  3           0  0  0
    3.5636   -0.7086    0.0107 N   0  0  1  0  0  3           0  0  0
    1.4533    0.0000    0.0000 N   0  0  2  0  0  3           0  0  0
   -0.3441   -0.0818    4.5626 N   0  0  1  0  0  3           0  0  0
    0.9964   -1.0024    7.0025 N   0  0  2  0  0  3           0  0  0
    4.1783    2.1003   -6.8842 C   0  0  0  0  0  4           0  0  0
    5.9104    1.0662   -3.1503 C   0  0  0  0  0  4           0  0  0
    6.0806   -0.2074   -1.3612 C   0  0  0  0  0  4           0  0  0
    5.3184    1.4195   -4.4258 C   0  0  0  0  0  4           0  0  0
    3.7168    0.9799   -6.1939 C   0  0  0  0  0  4           0  0  0
    5.2046    2.8834   -6.3568 C   0  0  0  0  0  4           0  0  0
    6.9103    1.6114   -2.3690 C   0  0  0  0  0  4           0  0  0
    7.0218    0.7901   -1.2207 C   0  0  0  0  0  4           0  0  0
    4.2865    0.6409   -4.9649 C   0  0  0  0  0  4           0  0  0
    5.7735    2.5426   -5.1280 C   0  0  0  0  0  4           0  0  0
    2.2341   -1.1446    0.0000 C   0  0  0  0  0  4           0  0  0
    2.2342    1.1360    0.0240 C   0  0  0  0  0  4           0  0  0
    5.7141   -1.3202   -0.5336 C   0  0  0  0  0  4           0  0  0
    3.6927    0.7256    0.0236 C   0  0  0  0  0  4           0  0  0
    1.1098    0.0207    4.7568 C   0  0  0  0  0  4           0  0  0
   -1.0179   -0.1215    5.8697 C   0  0  0  0  0  4           0  0  0
    1.6833   -1.0378    5.7067 C   0  0  0  0  0  4           0  0  0
   -0.4507   -1.1749    6.8306 C   0  0  0  0  0  4           0  0  0
    0.0000    0.0000    0.0000 C   0  0  0  0  0  4           0  0  0
   -0.6976   -1.2030    3.6896 C   0  0  0  0  0  4           0  0  0
    1.5381   -2.0160    7.9053 C   0  0  0  0  0  4           0  0  0
   -0.5556    0.0000    1.4201 C   0  0  0  0  0  4           0  0  0
   -0.1407   -1.2030    2.2659 C   0  0  0  0  0  4           0  0  0
  1 10  1  0     0  0
  2 11  1  0     0  0
  2 12  1  0     0  0
  3 20  2  0     0  0
  4 21  2  0     0  0
  5  6  1  0     0  0
  5 22  2  0     0  0
  6 20  1  0     0  0
  6 23  1  0     0  0
  7 20  1  0     0  0
  7 21  1  0     0  0
  7 28  1  0     0  0
  8 24  1  0     0  0
  8 25  1  0     0  0
  8 29  1  0     0  0
  9 26  1  0     0  0
  9 27  1  0     0  0
  9 30  1  0     0  0
 10 14  1  0     0  0
 10 15  2  0     0  0
 11 13  1  0     0  0
 11 16  2  0     0  0
 12 17  2  0     0  0
 12 22  1  0     0  0
 13 18  1  0     0  0
 13 19  2  0     0  0
 14 18  2  0     0  0
 15 19  1  0     0  0
 16 17  1  0     0  0
 21 23  1  0     0  0
 24 26  1  0     0  0
 25 27  1  0     0  0
 28 31  1  0     0  0
 29 32  1  0     0  0
 31 32  1  0     0  0
M  END
> <standard_type>
pIC50

> <# Confs.>
25

> <canonical_smiles>
O=C(N1/N=C/C2=CC=C(C(C=C3)=CC=C3Cl)O2)N(CCCCN4CCN(C)CC4)C(C1)=O

> <standard_relation>
=

> <Publication_ID>
nan

> <predicted_activity_value>
nan

> <actual_activity_value>
0.25181197299379954

> <Compound>
Azimilide

> <standard_units>
uM

> hash
3828609077382895411

$$$$
3
XXILIB    08252103503D 0   0.00000     0.00000

 32 35  0     1  0            999 V2000
    3.4754    2.0188    8.5339 Cl  0  0  0  0  0  1           0  0  0
    5.4044    1.3057    2.1726 O   0  0  0  0  0  2           0  0  0
    1.8436    1.9985   -1.1495 O   0  0  0  0  0  2           0  0  0
    1.8589   -2.0142    1.1134 O   0  0  0  0  0  2           0  0  0
    4.5741    1.3859   -0.8226 N   0  0  0  0  0  3           0  0  0
    3.5636    0.6083   -0.3636 N   0  0  1  0  0  3           0  0  0
    1.4533    0.0000    0.0000 N   0  0  2  0  0  3           0  0  0
   -0.3441    2.3242    4.5626 N   0  0  1  0  0  3           0  0  0
   -2.7187    3.8355    5.3839 N   0  0  2  0  0  3           0  0  0
    4.1781    1.6235    7.0119 C   0  0  0  0  0  4           0  0  0
    5.9104    0.6518    3.2614 C   0  0  0  0  0  4           0  0  0
    6.0806    0.8603    1.0752 C   0  0  0  0  0  4           0  0  0
    5.3184    0.9836    4.5427 C   0  0  0  0  0  4           0  0  0
    3.4076    1.7033    5.8523 C   0  0  0  0  0  4           0  0  0
    5.5135    1.2267    6.9483 C   0  0  0  0  0  4           0  0  0
    6.9103   -0.2110    2.8574 C   0  0  0  0  0  4           0  0  0
    7.0218   -0.0739    1.4522 C   0  0  0  0  0  4           0  0  0
    3.9780    1.3825    4.6187 C   0  0  0  0  0  4           0  0  0
    6.0824    0.9068    5.7140 C   0  0  0  0  0  4           0  0  0
    2.2341    0.9912   -0.5723 C   0  0  0  0  0  4           0  0  0
    2.2342   -0.9958    0.5472 C   0  0  0  0  0  4           0  0  0
    5.7141    1.4101   -0.1980 C   0  0  0  0  0  4           0  0  0
    3.6927   -0.6402    0.3423 C   0  0  0  0  0  4           0  0  0
   -0.9493    2.1892    5.8958 C   0  0  0  0  0  4           0  0  0
   -0.6821    3.6385    3.9946 C   0  0  0  0  0  4           0  0  0
   -2.4508    2.4996    5.9279 C   0  0  0  0  0  4           0  0  0
   -2.1817    3.9622    4.0241 C   0  0  0  0  0  4           0  0  0
    0.0000    0.0000    0.0000 C   0  0  0  0  0  4           0  0  0
   -0.6976    1.2030    3.6896 C   0  0  0  0  0  4           0  0  0
   -4.1504    4.1284    5.4079 C   0  0  0  0  0  4           0  0  0
   -0.5556   -0.0000    1.4201 C   0  0  0  0  0  4           0  0  0
   -0.1407    1.2030    2.2659 C   0  0  0  0  0  4           0  0  0
  1 10  1  0     0  0
  2 11  1  0     0  0
  2 12  1  0     0  0
  3 20  2  0     0  0
  4 21  2  0     0  0
  5  6  1  0     0  0
  5 22  2  0     0  0
  6 20  1  0     0  0
  6 23  1  0     0  0
  7 20  1  0     0  0
  7 21  1  0     0  0
  7 28  1  0     0  0
  8 24  1  0     0  0
  8 25  1  0     0  0
  8 29  1  0     0  0
  9 26  1  0     0  0
  9 27  1  0     0  0
  9 30  1  0     0  0
 10 14  1  0     0  0
 10 15  2  0     0  0
 11 13  1  0     0  0
 11 16  2  0     0  0
 12 17  2  0     0  0
 12 22  1  0     0  0
 13 18  1  0     0  0
 13 19  2  0     0  0
 14 18  2  0     0  0
 15 19  1  0     0  0
 16 17  1  0     0  0
 21 23  1  0     0  0
 24 26  1  0     0  0
 25 27  1  0     0  0
 28 31  1  0     0  0
 29 32  1  0     0  0
 31 32  1  0     0  0
M  END
> <standard_type>
pIC50

> <# Confs.>
25

> <canonical_smiles>
O=C(N1/N=C/C2=CC=C(C(C=C3)=CC=C3Cl)O2)N(CCCCN4CCN(C)CC4)C(C1)=O

> <standard_relation>
=

> <Publication_ID>
nan

> <predicted_activity_value>
nan

> <actual_activity_value>
0.25181197299379954

> <Compound>
Azimilide

> <standard_units>
uM

> hash
3828609077382895411

$$$$
3
XXILIB    08252103503D 0   0.00000     0.00000

 32 35  0     1  0            999 V2000
    3.4760    2.0181    8.5344 Cl  0  0  0  0  0  1           0  0  0
    5.4044    1.3057    2.1726 O   0  0  0  0  0  2           0  0  0
    1.8436    1.9985   -1.1495 O   0  0  0  0  0  2           0  0  0
    1.8589   -2.0142    1.1134 O   0  0  0  0  0  2           0  0  0
    4.5741    1.3859   -0.8226 N   0  0  0  0  0  3           0  0  0
    3.5636    0.6083   -0.3636 N   0  0  1  0  0  3           0  0  0
    1.4533    0.0000    0.0000 N   0  0  2  0  0  3           0  0  0
   -0.2125    3.7586    2.4579 N   0  0  1  0  0  3           0  0  0
    0.9490    6.3806    3.0195 N   0  0  2  0  0  3           0  0  0
    4.1783    1.6232    7.0121 C   0  0  0  0  0  4           0  0  0
    5.9104    0.6518    3.2614 C   0  0  0  0  0  4           0  0  0
    6.0806    0.8603    1.0752 C   0  0  0  0  0  4           0  0  0
    5.3184    0.9836    4.5427 C   0  0  0  0  0  4           0  0  0
    3.7168    2.2483    5.8540 C   0  0  0  0  0  4           0  0  0
    5.2046    0.6813    6.9468 C   0  0  0  0  0  4           0  0  0
    6.9103   -0.2110    2.8574 C   0  0  0  0  0  4           0  0  0
    7.0218   -0.0739    1.4522 C   0  0  0  0  0  4           0  0  0
    4.2865    1.9275    4.6202 C   0  0  0  0  0  4           0  0  0
    5.7735    0.3620    5.7123 C   0  0  0  0  0  4           0  0  0
    2.2341    0.9912   -0.5723 C   0  0  0  0  0  4           0  0  0
    2.2342   -0.9958    0.5472 C   0  0  0  0  0  4           0  0  0
    5.7141    1.4101   -0.1980 C   0  0  0  0  0  4           0  0  0
    3.6927   -0.6402    0.3423 C   0  0  0  0  0  4           0  0  0
    1.2371    3.9107    2.6175 C   0  0  0  0  0  4           0  0  0
   -0.8152    4.9747    1.9029 C   0  0  0  0  0  4           0  0  0
    1.5599    5.1309    3.4899 C   0  0  0  0  0  4           0  0  0
   -0.4873    6.1909    2.7790 C   0  0  0  0  0  4           0  0  0
    0.0000    0.0000    0.0000 C   0  0  0  0  0  4           0  0  0
   -0.5735    2.5569    1.7031 C   0  0  0  0  0  4           0  0  0
    1.6354    6.9213    1.8481 C   0  0  0  0  0  4           0  0  0
   -0.5556    0.0000    1.4201 C   0  0  0  0  0  4           0  0  0
   -0.1407    1.2030    2.2659 C   0  0  0  0  0  4           0  0  0
  1 10  1  0     0  0
  2 11  1  0     0  0
  2 12  1  0     0  0
  3 20  2  0     0  0
  4 21  2  0     0  0
  5  6  1  0     0  0
  5 22  2  0     0  0
  6 20  1  0     0  0
  6 23  1  0     0  0
  7 20  1  0     0  0
  7 21  1  0     0  0
  7 28  1  0     0  0
  8 24  1  0     0  0
  8 25  1  0     0  0
  8 29  1  0     0  0
  9 26  1  0     0  0
  9 27  1  0     0  0
  9 30  1  0     0  0
 10 14  1  0     0  0
 10 15  2  0     0  0
 11 13  1  0     0  0
 11 16  2  0     0  0
 12 17  2  0     0  0
 12 22  1  0     0  0
 13 18  1  0     0  0
 13 19  2  0     0  0
 14 18  2  0     0  0
 15 19  1  0     0  0
 16 17  1  0     0  0
 21 23  1  0     0  0
 24 26  1  0     0  0
 25 27  1  0     0  0
 28 31  1  0     0  0
 29 32  1  0     0  0
 31 32  1  0     0  0
M  END
> <standard_type>
pIC50

> <# Confs.>
25

> <canonical_smiles>
O=C(N1/N=C/C2=CC=C(C(C=C3)=CC=C3Cl)O2)N(CCCCN4CCN(C)CC4)C(C1)=O

> <standard_relation>
=

> <Publication_ID>
nan

> <predicted_activity_value>
nan

> <actual_activity_value>
0.25181197299379954

> <Compound>
Azimilide

> <standard_units>
uM

> hash
3828609077382895411

$$$$
3
XXILIB    08252103503D 0   0.00000     0.00000

 32 35  0     1  0            999 V2000
    3.4760   -2.5195    8.4000 Cl  0  0  0  0  0  1           0  0  0
    5.4044    0.0445    2.5344 O   0  0  0  0  0  2           0  0  0
    1.8436    2.3055    0.0038 O   0  0  0  0  0  2           0  0  0
    1.8589   -2.3010   -0.0429 O   0  0  0  0  0  2           0  0  0
    4.5741    1.6115   -0.0195 N   0  0  0  0  0  3           0  0  0
    3.5636    0.7086   -0.0107 N   0  0  1  0  0  3           0  0  0
    1.4533    0.0000    0.0000 N   0  0  2  0  0  3           0  0  0
   -2.4235   -2.5364    1.3562 N   0  0  1  0  0  3           0  0  0
   -2.8191   -5.2015    2.4875 N   0  0  2  0  0  3           0  0  0
    4.1783   -2.1003    6.8842 C   0  0  0  0  0  4           0  0  0
    5.9104   -1.0662    3.1503 C   0  0  0  0  0  4           0  0  0
    6.0806    0.2074    1.3612 C   0  0  0  0  0  4           0  0  0
    5.3184   -1.4195    4.4258 C   0  0  0  0  0  4           0  0  0
    3.7168   -0.9799    6.1939 C   0  0  0  0  0  4           0  0  0
    5.2046   -2.8834    6.3568 C   0  0  0  0  0  4           0  0  0
    6.9103   -1.6114    2.3690 C   0  0  0  0  0  4           0  0  0
    7.0218   -0.7901    1.2207 C   0  0  0  0  0  4           0  0  0
    4.2865   -0.6409    4.9649 C   0  0  0  0  0  4           0  0  0
    5.7735   -2.5426    5.1280 C   0  0  0  0  0  4           0  0  0
    2.2341    1.1446   -0.0000 C   0  0  0  0  0  4           0  0  0
    2.2342   -1.1360   -0.0240 C   0  0  0  0  0  4           0  0  0
    5.7141    1.3202    0.5336 C   0  0  0  0  0  4           0  0  0
    3.6927   -0.7256   -0.0236 C   0  0  0  0  0  4           0  0  0
   -2.7565   -2.6998    2.7749 C   0  0  0  0  0  4           0  0  0
   -3.0096   -3.6096    0.5471 C   0  0  0  0  0  4           0  0  0
   -2.3067   -4.0769    3.2805 C   0  0  0  0  0  4           0  0  0
   -2.5572   -4.9835    1.0590 C   0  0  0  0  0  4           0  0  0
    0.0000    0.0000    0.0000 C   0  0  0  0  0  4           0  0  0
   -2.7563   -1.2036    0.8491 C   0  0  0  0  0  4           0  0  0
   -4.2321   -5.4633    2.7533 C   0  0  0  0  0  4           0  0  0
   -0.5556    0.0000    1.4201 C   0  0  0  0  0  4           0  0  0
   -2.0811   -0.0000    1.5068 C   0  0  0  0  0  4           0  0  0
  1 10  1  0     0  0
  2 11  1  0     0  0
  2 12  1  0     0  0
  3 20  2  0     0  0
  4 21  2  0     0  0
  5  6  1  0     0  0
  5 22  2  0     0  0
  6 20  1  0     0  0
  6 23  1  0     0  0
  7 20  1  0     0  0
  7 21  1  0     0  0
  7 28  1  0     0  0
  8 24  1  0     0  0
  8 25  1  0     0  0
  8 29  1  0     0  0
  9 26  1  0     0  0
  9 27  1  0     0  0
  9 30  1  0     0  0
 10 14  1  0     0  0
 10 15  2  0     0  0
 11 13  1  0     0  0
 11 16  2  0     0  0
 12 17  2  0     0  0
 12 22  1  0     0  0
 13 18  1  0     0  0
 13 19  2  0     0  0
 14 18  2  0     0  0
 15 19  1  0     0  0
 16 17  1  0     0  0
 21 23  1  0     0  0
 24 26  1  0     0  0
 25 27  1  0     0  0
 28 31  1  0     0  0
 29 32  1  0     0  0
 31 32  1  0     0  0
M  END
> <standard_type>
pIC50

> <# Confs.>
25

> <canonical_smiles>
O=C(N1/N=C/C2=CC=C(C(C=C3)=CC=C3Cl)O2)N(CCCCN4CCN(C)CC4)C(C1)=O

> <standard_relation>
=

> <Publication_ID>
nan

> <predicted_activity_value>
nan

> <actual_activity_value>
0.25181197299379954

> <Compound>
Azimilide

> <standard_units>
uM

> hash
3828609077382895411

$$$$
3
XXILIB    08252103503D 0   0.00000     0.00000

 32 35  0     1  0            999 V2000
    3.4760   -2.5195    8.4000 Cl  0  0  0  0  0  1           0  0  0
    5.4044    0.0445    2.5344 O   0  0  0  0  0  2           0  0  0
    1.8436    2.3055    0.0038 O   0  0  0  0  0  2           0  0  0
    1.8589   -2.3010   -0.0429 O   0  0  0  0  0  2           0  0  0
    4.5741    1.6115   -0.0195 N   0  0  0  0  0  3           0  0  0
    3.5636    0.7086   -0.0107 N   0  0  1  0  0  3           0  0  0
    1.4533    0.0000    0.0000 N   0  0  2  0  0  3           0  0  0
   -2.2845   -1.1212    3.8034 N   0  0  1  0  0  3           0  0  0
   -4.6721   -2.5119    4.7849 N   0  0  2  0  0  3           0  0  0
    4.1783   -2.1003    6.8842 C   0  0  0  0  0  4           0  0  0
    5.9104   -1.0662    3.1503 C   0  0  0  0  0  4           0  0  0
    6.0806    0.2074    1.3612 C   0  0  0  0  0  4           0  0  0
    5.3184   -1.4195    4.4258 C   0  0  0  0  0  4           0  0  0
    3.7168   -0.9799    6.1939 C   0  0  0  0  0  4           0  0  0
    5.2046   -2.8834    6.3568 C   0  0  0  0  0  4           0  0  0
    6.9103   -1.6114    2.3690 C   0  0  0  0  0  4           0  0  0
    7.0218   -0.7901    1.2207 C   0  0  0  0  0  4           0  0  0
    4.2865   -0.6409    4.9649 C   0  0  0  0  0  4           0  0  0
    5.7735   -2.5426    5.1280 C   0  0  0  0  0  4           0  0  0
    2.2341    1.1446   -0.0000 C   0  0  0  0  0  4           0  0  0
    2.2342   -1.1360   -0.0240 C   0  0  0  0  0  4           0  0  0
    5.7141    1.3202    0.5336 C   0  0  0  0  0  4           0  0  0
    3.6927   -0.7256   -0.0236 C   0  0  0  0  0  4           0  0  0
   -2.7381   -2.4063    3.2514 C   0  0  0  0  0  4           0  0  0
   -2.7790   -0.9703    5.1807 C   0  0  0  0  0  4           0  0  0
   -4.2479   -2.6393    3.3862 C   0  0  0  0  0  4           0  0  0
   -4.2883   -1.2042    5.3293 C   0  0  0  0  0  4           0  0  0
    0.0000    0.0000    0.0000 C   0  0  0  0  0  4           0  0  0
   -2.6381   -0.0000    2.9305 C   0  0  0  0  0  4           0  0  0
   -6.1121   -2.7268    4.9124 C   0  0  0  0  0  4           0  0  0
   -0.5556    0.0000    1.4201 C   0  0  0  0  0  4           0  0  0
   -2.0811   -0.0000    1.5068 C   0  0  0  0  0  4           0  0  0
  1 10  1  0     0  0
  2 11  1  0     0  0
  2 12  1  0     0  0
  3 20  2  0     0  0
  4 21  2  0     0  0
  5  6  1  0     0  0
  5 22  2  0     0  0
  6 20  1  0     0  0
  6 23  1  0     0  0
  7 20  1  0     0  0
  7 21  1  0     0  0
  7 28  1  0     0  0
  8 24  1  0     0  0
  8 25  1  0     0  0
  8 29  1  0     0  0
  9 26  1  0     0  0
  9 27  1  0     0  0
  9 30  1  0     0  0
 10 14  1  0     0  0
 10 15  2  0     0  0
 11 13  1  0     0  0
 11 16  2  0     0  0
 12 17  2  0     0  0
 12 22  1  0     0  0
 13 18  1  0     0  0
 13 19  2  0     0  0
 14 18  2  0     0  0
 15 19  1  0     0  0
 16 17  1  0     0  0
 21 23  1  0     0  0
 24 26  1  0     0  0
 25 27  1  0     0  0
 28 31  1  0     0  0
 29 32  1  0     0  0
 31 32  1  0     0  0
M  END
> <standard_type>
pIC50

> <# Confs.>
25

> <canonical_smiles>
O=C(N1/N=C/C2=CC=C(C(C=C3)=CC=C3Cl)O2)N(CCCCN4CCN(C)CC4)C(C1)=O

> <standard_relation>
=

> <Publication_ID>
nan

> <predicted_activity_value>
nan

> <actual_activity_value>
0.25181197299379954

> <Compound>
Azimilide

> <standard_units>
uM

> hash
3828609077382895411

$$$$
3
XXILIB    08252103503D 0   0.00000     0.00000

 32 35  0     1  0            999 V2000
    3.4760   -2.5195    8.4000 Cl  0  0  0  0  0  1           0  0  0
    5.4044    0.0445    2.5344 O   0  0  0  0  0  2           0  0  0
    1.8436    2.3055    0.0038 O   0  0  0  0  0  2           0  0  0
    1.8589   -2.3010   -0.0429 O   0  0  0  0  0  2           0  0  0
    4.5741    1.6115   -0.0195 N   0  0  0  0  0  3           0  0  0
    3.5636    0.7086   -0.0107 N   0  0  1  0  0  3           0  0  0
    1.4533    0.0000    0.0000 N   0  0  2  0  0  3           0  0  0
   -2.2845    1.1212    3.8034 N   0  0  1  0  0  3           0  0  0
   -4.6592    2.6325    4.6247 N   0  0  2  0  0  3           0  0  0
    4.1783   -2.1003    6.8842 C   0  0  0  0  0  4           0  0  0
    5.9104   -1.0662    3.1503 C   0  0  0  0  0  4           0  0  0
    6.0806    0.2074    1.3612 C   0  0  0  0  0  4           0  0  0
    5.3184   -1.4195    4.4258 C   0  0  0  0  0  4           0  0  0
    3.7168   -0.9799    6.1939 C   0  0  0  0  0  4           0  0  0
    5.2046   -2.8834    6.3568 C   0  0  0  0  0  4           0  0  0
    6.9103   -1.6114    2.3690 C   0  0  0  0  0  4           0  0  0
    7.0218   -0.7901    1.2207 C   0  0  0  0  0  4           0  0  0
    4.2865   -0.6409    4.9649 C   0  0  0  0  0  4           0  0  0
    5.7735   -2.5426    5.1280 C   0  0  0  0  0  4           0  0  0
    2.2341    1.1446   -0.0000 C   0  0  0  0  0  4           0  0  0
    2.2342   -1.1360   -0.0240 C   0  0  0  0  0  4           0  0  0
    5.7141    1.3202    0.5336 C   0  0  0  0  0  4           0  0  0
    3.6927   -0.7256   -0.0236 C   0  0  0  0  0  4           0  0  0
   -2.8898    0.9862    5.1366 C   0  0  0  0  0  4           0  0  0
   -2.6226    2.4355    3.2355 C   0  0  0  0  0  4           0  0  0
   -4.3913    1.2966    5.1688 C   0  0  0  0  0  4           0  0  0
   -4.1222    2.7592    3.2649 C   0  0  0  0  0  4           0  0  0
    0.0000    0.0000    0.0000 C   0  0  0  0  0  4           0  0  0
   -2.6381    0.0000    2.9305 C   0  0  0  0  0  4           0  0  0
   -6.0908    2.9254    4.6487 C   0  0  0  0  0  4           0  0  0
   -0.5556    0.0000    1.4201 C   0  0  0  0  0  4           0  0  0
   -2.0811   -0.0000    1.5068 C   0  0  0  0  0  4           0  0  0
  1 10  1  0     0  0
  2 11  1  0     0  0
  2 12  1  0     0  0
  3 20  2  0     0  0
  4 21  2  0     0  0
  5  6  1  0     0  0
  5 22  2  0     0  0
  6 20  1  0     0  0
  6 23  1  0     0  0
  7 20  1  0     0  0
  7 21  1  0     0  0
  7 28  1  0     0  0
  8 24  1  0     0  0
  8 25  1  0     0  0
  8 29  1  0     0  0
  9 26  1  0     0  0
  9 27  1  0     0  0
  9 30  1  0     0  0
 10 14  1  0     0  0
 10 15  2  0     0  0
 11 13  1  0     0  0
 11 16  2  0     0  0
 12 17  2  0     0  0
 12 22  1  0     0  0
 13 18  1  0     0  0
 13 19  2  0     0  0
 14 18  2  0     0  0
 15 19  1  0     0  0
 16 17  1  0     0  0
 21 23  1  0     0  0
 24 26  1  0     0  0
 25 27  1  0     0  0
 28 31  1  0     0  0
 29 32  1  0     0  0
 31 32  1  0     0  0
M  END
> <standard_type>
pIC50

> <# Confs.>
25

> <canonical_smiles>
O=C(N1/N=C/C2=CC=C(C(C=C3)=CC=C3Cl)O2)N(CCCCN4CCN(C)CC4)C(C1)=O

> <standard_relation>
=

> <Publication_ID>
nan

> <predicted_activity_value>
nan

> <actual_activity_value>
0.25181197299379954

> <Compound>
Azimilide

> <standard_units>
uM

> hash
3828609077382895411

$$$$
3
XXILIB    08252103503D 0   0.00000     0.00000

 32 35  0     1  0            999 V2000
    3.4760    2.5195   -8.4000 Cl  0  0  0  0  0  1           0  0  0
    5.4044   -0.0445   -2.5344 O   0  0  0  0  0  2           0  0  0
    1.8436   -2.3055   -0.0038 O   0  0  0  0  0  2           0  0  0
    1.8589    2.3010    0.0429 O   0  0  0  0  0  2           0  0  0
    4.5741   -1.6115    0.0195 N   0  0  0  0  0  3           0  0  0
    3.5636   -0.7086    0.0107 N   0  0  1  0  0  3           0  0  0
    1.4533    0.0000    0.0000 N   0  0  2  0  0  3           0  0  0
   -2.1526   -1.2030    3.8551 N   0  0  1  0  0  3           0  0  0
   -3.0749   -3.6147    5.2445 N   0  0  2  0  0  3           0  0  0
    4.1783    2.1003   -6.8842 C   0  0  0  0  0  4           0  0  0
    5.9104    1.0662   -3.1503 C   0  0  0  0  0  4           0  0  0
    6.0806   -0.2074   -1.3612 C   0  0  0  0  0  4           0  0  0
    5.3184    1.4195   -4.4258 C   0  0  0  0  0  4           0  0  0
    3.7168    0.9799   -6.1939 C   0  0  0  0  0  4           0  0  0
    5.2046    2.8834   -6.3568 C   0  0  0  0  0  4           0  0  0
    6.9103    1.6114   -2.3690 C   0  0  0  0  0  4           0  0  0
    7.0218    0.7901   -1.2207 C   0  0  0  0  0  4           0  0  0
    4.2865    0.6409   -4.9649 C   0  0  0  0  0  4           0  0  0
    5.7735    2.5426   -5.1280 C   0  0  0  0  0  4           0  0  0
    2.2341   -1.1446    0.0000 C   0  0  0  0  0  4           0  0  0
    2.2342    1.1360    0.0240 C   0  0  0  0  0  4           0  0  0
    5.7141   -1.3202   -0.5336 C   0  0  0  0  0  4           0  0  0
    3.6927    0.7256    0.0236 C   0  0  0  0  0  4           0  0  0
   -2.5401   -1.2030    5.2734 C   0  0  0  0  0  4           0  0  0
   -2.8218   -2.3120    3.1575 C   0  0  0  0  0  4           0  0  0
   -2.3550   -2.5590    5.9654 C   0  0  0  0  0  4           0  0  0
   -2.6466   -3.6740    3.8422 C   0  0  0  0  0  4           0  0  0
    0.0000    0.0000   -0.0000 C   0  0  0  0  0  4           0  0  0
   -0.6976   -1.2030    3.6896 C   0  0  0  0  0  4           0  0  0
   -2.8926   -4.9082    5.9000 C   0  0  0  0  0  4           0  0  0
   -0.5556   -0.0000    1.4201 C   0  0  0  0  0  4           0  0  0
   -0.1407   -1.2030    2.2659 C   0  0  0  0  0  4           0  0  0
  1 10  1  0     0  0
  2 11  1  0     0  0
  2 12  1  0     0  0
  3 20  2  0     0  0
  4 21  2  0     0  0
  5  6  1  0     0  0
  5 22  2  0     0  0
  6 20  1  0     0  0
  6 23  1  0     0  0
  7 20  1  0     0  0
  7 21  1  0     0  0
  7 28  1  0     0  0
  8 24  1  0     0  0
  8 25  1  0     0  0
  8 29  1  0     0  0
  9 26  1  0     0  0
  9 27  1  0     0  0
  9 30  1  0     0  0
 10 14  1  0     0  0
 10 15  2  0     0  0
 11 13  1  0     0  0
 11 16  2  0     0  0
 12 17  2  0     0  0
 12 22  1  0     0  0
 13 18  1  0     0  0
 13 19  2  0     0  0
 14 18  2  0     0  0
 15 19  1  0     0  0
 16 17  1  0     0  0
 21 23  1  0     0  0
 24 26  1  0     0  0
 25 27  1  0     0  0
 28 31  1  0     0  0
 29 32  1  0     0  0
 31 32  1  0     0  0
M  END
> <standard_type>
pIC50

> <# Confs.>
25

> <canonical_smiles>
O=C(N1/N=C/C2=CC=C(C(C=C3)=CC=C3Cl)O2)N(CCCCN4CCN(C)CC4)C(C1)=O

> <standard_relation>
=

> <Publication_ID>
nan

> <predicted_activity_value>
nan

> <actual_activity_value>
0.25181197299379954

> <Compound>
Azimilide

> <standard_units>
uM

> hash
3828609077382895411

$$$$
3
XXILIB    08252103503D 0   0.00000     0.00000

 32 35  0     1  0            999 V2000
    3.4760   -2.5195    8.4000 Cl  0  0  0  0  0  1           0  0  0
    5.4044    0.0445    2.5344 O   0  0  0  0  0  2           0  0  0
    1.8436    2.3055    0.0038 O   0  0  0  0  0  2           0  0  0
    1.8589   -2.3010   -0.0429 O   0  0  0  0  0  2           0  0  0
    4.5741    1.6115   -0.0195 N   0  0  0  0  0  3           0  0  0
    3.5636    0.7086   -0.0107 N   0  0  1  0  0  3           0  0  0
    1.4533    0.0000    0.0000 N   0  0  2  0  0  3           0  0  0
   -2.1526    1.2030    3.8551 N   0  0  1  0  0  3           0  0  0
   -4.8099    2.1415    4.6277 N   0  0  2  0  0  3           0  0  0
    4.1783   -2.1003    6.8842 C   0  0  0  0  0  4           0  0  0
    5.9104   -1.0662    3.1503 C   0  0  0  0  0  4           0  0  0
    6.0806    0.2074    1.3612 C   0  0  0  0  0  4           0  0  0
    5.3184   -1.4195    4.4258 C   0  0  0  0  0  4           0  0  0
    3.7168   -0.9799    6.1939 C   0  0  0  0  0  4           0  0  0
    5.2046   -2.8834    6.3568 C   0  0  0  0  0  4           0  0  0
    6.9103   -1.6114    2.3690 C   0  0  0  0  0  4           0  0  0
    7.0218   -0.7901    1.2207 C   0  0  0  0  0  4           0  0  0
    4.2865   -0.6409    4.9649 C   0  0  0  0  0  4           0  0  0
    5.7735   -2.5426    5.1280 C   0  0  0  0  0  4           0  0  0
    2.2341    1.1446   -0.0000 C   0  0  0  0  0  4           0  0  0
    2.2342   -1.1360   -0.0240 C   0  0  0  0  0  4           0  0  0
    5.7141    1.3202    0.5336 C   0  0  0  0  0  4           0  0  0
    3.6927   -0.7256   -0.0236 C   0  0  0  0  0  4           0  0  0
   -2.5605    1.2030    5.2635 C   0  0  0  0  0  4           0  0  0
   -2.8038    2.2882    3.1145 C   0  0  0  0  0  4           0  0  0
   -4.0873    1.1111    5.3841 C   0  0  0  0  0  4           0  0  0
   -4.3299    2.1912    3.2407 C   0  0  0  0  0  4           0  0  0
    0.0000   -0.0000    0.0000 C   0  0  0  0  0  4           0  0  0
   -0.6976    1.2030    3.6896 C   0  0  0  0  0  4           0  0  0
   -4.7452    3.4484    5.2786 C   0  0  0  0  0  4           0  0  0
   -0.5556   -0.0000    1.4201 C   0  0  0  0  0  4           0  0  0
   -0.1407    1.2030    2.2659 C   0  0  0  0  0  4           0  0  0
  1 10  1  0     0  0
  2 11  1  0     0  0
  2 12  1  0     0  0
  3 20  2  0     0  0
  4 21  2  0     0  0
  5  6  1  0     0  0
  5 22  2  0     0  0
  6 20  1  0     0  0
  6 23  1  0     0  0
  7 20  1  0     0  0
  7 21  1  0     0  0
  7 28  1  0     0  0
  8 24  1  0     0  0
  8 25  1  0     0  0
  8 29  1  0     0  0
  9 26  1  0     0  0
  9 27  1  0     0  0
  9 30  1  0     0  0
 10 14  1  0     0  0
 10 15  2  0     0  0
 11 13  1  0     0  0
 11 16  2  0     0  0
 12 17  2  0     0  0
 12 22  1  0     0  0
 13 18  1  0     0  0
 13 19  2  0     0  0
 14 18  2  0     0  0
 15 19  1  0     0  0
 16 17  1  0     0  0
 21 23  1  0     0  0
 24 26  1  0     0  0
 25 27  1  0     0  0
 28 31  1  0     0  0
 29 32  1  0     0  0
 31 32  1  0     0  0
M  END
> <standard_type>
pIC50

> <# Confs.>
25

> <canonical_smiles>
O=C(N1/N=C/C2=CC=C(C(C=C3)=CC=C3Cl)O2)N(CCCCN4CCN(C)CC4)C(C1)=O

> <standard_relation>
=

> <Publication_ID>
nan

> <predicted_activity_value>
nan

> <actual_activity_value>
0.25181197299379954

> <Compound>
Azimilide

> <standard_units>
uM

> hash
3828609077382895411

$$$$
3
XXILIB    08252103503D 0   0.00000     0.00000

 32 35  0     1  0            999 V2000
    3.4760   -6.3819    6.0149 Cl  0  0  0  0  0  1           0  0  0
    5.4044   -1.2287    2.2171 O   0  0  0  0  0  2           0  0  0
    1.8436    1.9947    1.1560 O   0  0  0  0  0  2           0  0  0
    1.8589   -1.9713   -1.1877 O   0  0  0  0  0  2           0  0  0
    4.5741    1.4054    0.7889 N   0  0  0  0  0  3           0  0  0
    3.5636    0.6190    0.3450 N   0  0  1  0  0  3           0  0  0
    1.4533    0.0000    0.0000 N   0  0  2  0  0  3           0  0  0
   -0.3441   -2.3242    4.5626 N   0  0  1  0  0  3           0  0  0
   -0.6946   -4.6929    6.2377 N   0  0  2  0  0  3           0  0  0
    4.1783   -5.2610    4.9117 C   0  0  0  0  0  4           0  0  0
    5.9104   -2.4985    2.1952 C   0  0  0  0  0  4           0  0  0
    6.0806   -0.5010    1.2826 C   0  0  0  0  0  4           0  0  0
    5.3184   -3.4423    3.1231 C   0  0  0  0  0  4           0  0  0
    3.7168   -3.9456    4.8741 C   0  0  0  0  0  4           0  0  0
    5.2046   -5.6755    4.0634 C   0  0  0  0  0  4           0  0  0
    6.9103   -2.5801    1.2459 C   0  0  0  0  0  4           0  0  0
    7.0218   -1.2946    0.6621 C   0  0  0  0  0  4           0  0  0
    4.2865   -3.0375    3.9793 C   0  0  0  0  0  4           0  0  0
    5.7735   -4.7660    3.1697 C   0  0  0  0  0  4           0  0  0
    2.2341    0.9912    0.5723 C   0  0  0  0  0  4           0  0  0
    2.2342   -0.9718   -0.5888 C   0  0  0  0  0  4           0  0  0
    5.7141    0.8765    1.1222 C   0  0  0  0  0  4           0  0  0
    3.6927   -0.6165   -0.3833 C   0  0  0  0  0  4           0  0  0
   -0.9381   -2.2088    5.8982 C   0  0  0  0  0  4           0  0  0
   -0.6464   -3.6257    3.9585 C   0  0  0  0  0  4           0  0  0
   -0.4659   -3.3562    6.8009 C   0  0  0  0  0  4           0  0  0
   -0.1732   -4.7681    4.8669 C   0  0  0  0  0  4           0  0  0
    0.0000    0.0000    0.0000 C   0  0  0  0  0  4           0  0  0
   -0.6976   -1.2030    3.6896 C   0  0  0  0  0  4           0  0  0
   -2.0994   -5.0887    6.3137 C   0  0  0  0  0  4           0  0  0
   -0.5556   -0.0000    1.4201 C   0  0  0  0  0  4           0  0  0
   -0.1407   -1.2030    2.2659 C   0  0  0  0  0  4           0  0  0
  1 10  1  0     0  0
  2 11  1  0     0  0
  2 12  1  0     0  0
  3 20  2  0     0  0
  4 21  2  0     0  0
  5  6  1  0     0  0
  5 22  2  0     0  0
  6 20  1  0     0  0
  6 23  1  0     0  0
  7 20  1  0     0  0
  7 21  1  0     0  0
  7 28  1  0     0  0
  8 24  1  0     0  0
  8 25  1  0     0  0
  8 29  1  0     0  0
  9 26  1  0     0  0
  9 27  1  0     0  0
  9 30  1  0     0  0
 10 14  1  0     0  0
 10 15  2  0     0  0
 11 13  1  0     0  0
 11 16  2  0     0  0
 12 17  2  0     0  0
 12 22  1  0     0  0
 13 18  1  0     0  0
 13 19  2  0     0  0
 14 18  2  0     0  0
 15 19  1  0     0  0
 16 17  1  0     0  0
 21 23  1  0     0  0
 24 26  1  0     0  0
 25 27  1  0     0  0
 28 31  1  0     0  0
 29 32  1  0     0  0
 31 32  1  0     0  0
M  END
> <standard_type>
pIC50

> <# Confs.>
25

> <canonical_smiles>
O=C(N1/N=C/C2=CC=C(C(C=C3)=CC=C3Cl)O2)N(CCCCN4CCN(C)CC4)C(C1)=O

> <standard_relation>
=

> <Publication_ID>
nan

> <predicted_activity_value>
nan

> <actual_activity_value>
0.25181197299379954

> <Compound>
Azimilide

> <standard_units>
uM

> hash
3828609077382895411

$$$$
3
XXILIB    08252103503D 0   0.00000     0.00000

 32 35  0     1  0            999 V2000
    3.4760   -2.0181   -8.5344 Cl  0  0  0  0  0  1           0  0  0
    5.4044   -1.3057   -2.1726 O   0  0  0  0  0  2           0  0  0
    1.8436   -1.9985    1.1495 O   0  0  0  0  0  2           0  0  0
    1.8589    2.0142   -1.1134 O   0  0  0  0  0  2           0  0  0
    4.5741   -1.3859    0.8226 N   0  0  0  0  0  3           0  0  0
    3.5636   -0.6083    0.3636 N   0  0  1  0  0  3           0  0  0
    1.4533    0.0000    0.0000 N   0  0  2  0  0  3           0  0  0
   -2.0066    2.7948    1.5193 N   0  0  1  0  0  3           0  0  0
   -4.6128    4.0895    1.7857 N   0  0  2  0  0  3           0  0  0
    4.1783   -1.6232   -7.0121 C   0  0  0  0  0  4           0  0  0
    5.9104   -0.6518   -3.2614 C   0  0  0  0  0  4           0  0  0
    6.0806   -0.8603   -1.0752 C   0  0  0  0  0  4           0  0  0
    5.3184   -0.9836   -4.5427 C   0  0  0  0  0  4           0  0  0
    3.7168   -2.2483   -5.8540 C   0  0  0  0  0  4           0  0  0
    5.2046   -0.6813   -6.9468 C   0  0  0  0  0  4           0  0  0
    6.9103    0.2110   -2.8574 C   0  0  0  0  0  4           0  0  0
    7.0218    0.0739   -1.4522 C   0  0  0  0  0  4           0  0  0
    4.2865   -1.9275   -4.6202 C   0  0  0  0  0  4           0  0  0
    5.7735   -0.3620   -5.7123 C   0  0  0  0  0  4           0  0  0
    2.2341   -0.9912    0.5723 C   0  0  0  0  0  4           0  0  0
    2.2342    0.9958   -0.5472 C   0  0  0  0  0  4           0  0  0
    5.7141   -1.4101    0.1980 C   0  0  0  0  0  4           0  0  0
    3.6927    0.6402   -0.3423 C   0  0  0  0  0  4           0  0  0
   -2.7603    2.6975    2.7734 C   0  0  0  0  0  4           0  0  0
   -2.2840    4.0594    0.8309 C   0  0  0  0  0  4           0  0  0
   -4.2635    2.8638    2.5150 C   0  0  0  0  0  4           0  0  0
   -3.7887    4.2200    0.5772 C   0  0  0  0  0  4           0  0  0
    0.0000    0.0000    0.0000 C   0  0  0  0  0  4           0  0  0
   -0.5735    2.5569    1.7031 C   0  0  0  0  0  4           0  0  0
   -4.5340    5.2761    2.6351 C   0  0  0  0  0  4           0  0  0
   -0.5556   -0.0000    1.4201 C   0  0  0  0  0  4           0  0  0
   -0.1407    1.2030    2.2659 C   0  0  0  0  0  4           0  0  0
  1 10  1  0     0  0
  2 11  1  0     0  0
  2 12  1  0     0  0
  3 20  2  0     0  0
  4 21  2  0     0  0
  5  6  1  0     0  0
  5 22  2  0     0  0
  6 20  1  0     0  0
  6 23  1  0     0  0
  7 20  1  0     0  0
  7 21  1  0     0  0
  7 28  1  0     0  0
  8 24  1  0     0  0
  8 25  1  0     0  0
  8 29  1  0     0  0
  9 26  1  0     0  0
  9 27  1  0     0  0
  9 30  1  0     0  0
 10 14  1  0     0  0
 10 15  2  0     0  0
 11 13  1  0     0  0
 11 16  2  0     0  0
 12 17  2  0     0  0
 12 22  1  0     0  0
 13 18  1  0     0  0
 13 19  2  0     0  0
 14 18  2  0     0  0
 15 19  1  0     0  0
 16 17  1  0     0  0
 21 23  1  0     0  0
 24 26  1  0     0  0
 25 27  1  0     0  0
 28 31  1  0     0  0
 29 32  1  0     0  0
 31 32  1  0     0  0
M  END
> <standard_type>
pIC50

> <# Confs.>
25

> <canonical_smiles>
O=C(N1/N=C/C2=CC=C(C(C=C3)=CC=C3Cl)O2)N(CCCCN4CCN(C)CC4)C(C1)=O

> <standard_relation>
=

> <Publication_ID>
nan

> <predicted_activity_value>
nan

> <actual_activity_value>
0.25181197299379954

> <Compound>
Azimilide

> <standard_units>
uM

> hash
3828609077382895411

$$$$
30
XXILIB    08252103503D 0   0.00000     0.00000

 26 29  0     1  0            999 V2000
    0.2155    0.8966    5.1961 S   0  0  2  0  0  4           0  0  0
   -2.9902   -0.9007   -0.0034 S   0  0  0  0  0  2           0  0  0
    1.6193    1.2245    4.7807 O   0  0  0  0  0  2           0  0  0
    0.0000    0.0000    0.0000 N   0  0  2  0  0  3           0  0  0
    4.1162    2.8552    0.0000 N   0  0  2  0  0  3           0  0  0
   -0.6416    0.4084    3.6978 C   0  0  0  0  0  4           0  0  0
   -2.0125   -0.3563    1.3795 C   0  0  0  0  0  4           0  0  0
   -2.0049   -0.3751   -1.3875 C   0  0  0  0  0  4           0  0  0
   -0.6553   -0.0000    1.2629 C   0  0  0  0  0  4           0  0  0
   -0.6502   -0.0094   -1.2647 C   0  0  0  0  0  4           0  0  0
    0.0055    0.3864    2.4536 C   0  0  0  0  0  4           0  0  0
   -1.9798    0.0440    3.7802 C   0  0  0  0  0  4           0  0  0
   -2.6597   -0.3356    2.6280 C   0  0  0  0  0  4           0  0  0
   -2.6434   -0.3753   -2.6420 C   0  0  0  0  0  4           0  0  0
    0.0115    0.3745   -2.4535 C   0  0  0  0  0  4           0  0  0
   -1.9579    0.0007   -3.7914 C   0  0  0  0  0  4           0  0  0
   -0.6289    0.3789   -3.6963 C   0  0  0  0  0  4           0  0  0
   -0.6473    2.4651    5.4676 C   0  0  0  0  0  4           0  0  0
    3.5733    1.4754   -0.0000 C   0  0  1  0  0  4           0  0  0
    1.4571    0.0000   -0.0000 C   0  0  0  0  0  4           0  0  0
    5.5900    2.8473    0.0091 C   0  0  0  0  0  4           0  0  0
    3.6356    3.6497    1.1344 C   0  0  0  0  0  4           0  0  0
    2.0417    1.4128    0.0000 C   0  0  0  0  0  4           0  0  0
    4.1085    0.6913   -1.2189 C   0  0  0  0  0  4           0  0  0
    6.1616    2.1094   -1.1987 C   0  0  0  0  0  4           0  0  0
    5.6314    0.6860   -1.2673 C   0  0  0  0  0  4           0  0  0
  1  3  2  0     0  0
  1  6  1  0     0  0
  1 18  1  0     0  0
  2  7  1  0     0  0
  2  8  1  0     0  0
  4  9  1  0     0  0
  4 10  1  0     0  0
  4 20  1  0     0  0
  5 19  1  0     0  0
  5 21  1  0     0  0
  5 22  1  0     0  0
  6 11  2  0     0  0
  6 12  1  0     0  0
  7  9  2  0     0  0
  7 13  1  0     0  0
  8 10  2  0     0  0
  8 14  1  0     0  0
  9 11  1  0     0  0
 10 15  1  0     0  0
 12 13  2  0     0  0
 14 16  2  0     0  0
 15 17  2  0     0  0
 16 17  1  0     0  0
 19 23  1  0     0  0
 19 24  1  0     0  0
 20 23  1  0     0  0
 21 25  1  0     0  0
 24 26  1  0     0  0
 25 26  1  0     0  0
M  END
> <standard_type>
pIC50

> <# Confs.>
25

> <canonical_smiles>
CN1CCCCC1CCN2C3=C(C=CC(S(C)=O)=C3)SC4=C2C=CC=C4

> <standard_relation>
=

> <Publication_ID>
nan

> <predicted_activity_value>
nan

> <actual_activity_value>
0.2596373105057561

> <Compound>
Mesoridazine

> <standard_units>
uM

> hash
8364680936651860466

$$$$
30
XXILIB    08252103503D 0   0.00000     0.00000

 26 29  0     1  0            999 V2000
    0.2838   -0.9388    5.1475 S   0  0  2  0  0  4           0  0  0
   -2.9868    0.9106    0.0040 S   0  0  0  0  0  2           0  0  0
    1.2958   -1.9304    4.6542 O   0  0  0  0  0  2           0  0  0
    0.0000   -0.0000    0.0000 N   0  0  2  0  0  3           0  0  0
    4.1332   -0.8081    1.1943 N   0  0  2  0  0  3           0  0  0
   -0.6350   -0.4095    3.7005 C   0  0  0  0  0  4           0  0  0
   -2.0076    0.3633    1.3839 C   0  0  0  0  0  4           0  0  0
   -2.0067    0.3803   -1.3825 C   0  0  0  0  0  4           0  0  0
   -0.6533    0.0000    1.2635 C   0  0  0  0  0  4           0  0  0
   -0.6519    0.0136   -1.2636 C   0  0  0  0  0  4           0  0  0
    0.0061   -0.3937    2.4518 C   0  0  0  0  0  4           0  0  0
   -1.9714   -0.0409    3.7859 C   0  0  0  0  0  4           0  0  0
   -2.6509    0.3448    2.6346 C   0  0  0  0  0  4           0  0  0
   -2.6492    0.3800   -2.6350 C   0  0  0  0  0  4           0  0  0
    0.0074   -0.3673   -2.4547 C   0  0  0  0  0  4           0  0  0
   -1.9667    0.0061   -3.7864 C   0  0  0  0  0  4           0  0  0
   -0.6366   -0.3697   -3.6958 C   0  0  0  0  0  4           0  0  0
    1.1586    0.6153    5.4599 C   0  0  0  0  0  4           0  0  0
    3.5733   -1.4754    0.0000 C   0  0  1  0  0  4           0  0  0
    1.4571    0.0000    0.0000 C   0  0  0  0  0  4           0  0  0
    3.9734   -1.6051    2.4191 C   0  0  0  0  0  4           0  0  0
    5.5241   -0.4008    0.9931 C   0  0  0  0  0  4           0  0  0
    2.0417   -1.4128   -0.0000 C   0  0  0  0  0  4           0  0  0
    4.0697   -2.9254   -0.1637 C   0  0  0  0  0  4           0  0  0
    4.4910   -3.0397    2.3069 C   0  0  0  0  0  4           0  0  0
    3.8907   -3.7558    1.1036 C   0  0  0  0  0  4           0  0  0
  1  3  2  0     0  0
  1  6  1  0     0  0
  1 18  1  0     0  0
  2  7  1  0     0  0
  2  8  1  0     0  0
  4  9  1  0     0  0
  4 10  1  0     0  0
  4 20  1  0     0  0
  5 19  1  0     0  0
  5 21  1  0     0  0
  5 22  1  0     0  0
  6 11  2  0     0  0
  6 12  1  0     0  0
  7  9  2  0     0  0
  7 13  1  0     0  0
  8 10  2  0     0  0
  8 14  1  0     0  0
  9 11  1  0     0  0
 10 15  1  0     0  0
 12 13  2  0     0  0
 14 16  2  0     0  0
 15 17  2  0     0  0
 16 17  1  0     0  0
 19 23  1  0     0  0
 19 24  1  0     0  0
 20 23  1  0     0  0
 21 25  1  0     0  0
 24 26  1  0     0  0
 25 26  1  0     0  0
M  END
> <standard_type>
pIC50

> <# Confs.>
25

> <canonical_smiles>
CN1CCCCC1CCN2C3=C(C=CC(S(C)=O)=C3)SC4=C2C=CC=C4

> <standard_relation>
=

> <Publication_ID>
nan

> <predicted_activity_value>
nan

> <actual_activity_value>
0.2596373105057561

> <Compound>
Mesoridazine

> <standard_units>
uM

> hash
8364680936651860466

$$$$
30
XXILIB    08252103503D 0   0.00000     0.00000

 26 29  0     1  0            999 V2000
    0.1010   -1.2579    5.0809 S   0  0  2  0  0  4           0  0  0
   -2.8444    1.2321    0.0031 S   0  0  0  0  0  2           0  0  0
    1.4374   -1.7308    4.5896 O   0  0  0  0  0  2           0  0  0
    0.0000   -0.0000    0.0000 N   0  0  2  0  0  3           0  0  0
    4.1992    1.2993   -0.6064 N   0  0  2  0  0  3           0  0  0
   -0.7251   -0.5461    3.6566 C   0  0  0  0  0  4           0  0  0
   -1.9743    0.5050    1.3784 C   0  0  0  0  0  4           0  0  0
   -1.9701    0.5210   -1.3782 C   0  0  0  0  0  4           0  0  0
   -0.6660    0.0000    1.2543 C   0  0  0  0  0  4           0  0  0
   -0.6633    0.0069   -1.2536 C   0  0  0  0  0  4           0  0  0
   -0.0683   -0.5361    2.4167 C   0  0  0  0  0  4           0  0  0
   -2.0148   -0.0329    3.7502 C   0  0  0  0  0  4           0  0  0
   -2.6332    0.4921    2.6183 C   0  0  0  0  0  4           0  0  0
   -2.6315    0.5163   -2.6186 C   0  0  0  0  0  4           0  0  0
   -0.0808   -0.5484   -2.4127 C   0  0  0  0  0  4           0  0  0
   -2.0197   -0.0202   -3.7468 C   0  0  0  0  0  4           0  0  0
   -0.7458   -0.5583   -3.6423 C   0  0  0  0  0  4           0  0  0
    0.3755    0.2807    5.9949 C   0  0  0  0  0  4           0  0  0
    3.5733    1.2777    0.7377 C   0  0  1  0  0  4           0  0  0
    1.4571    0.0000   -0.0000 C   0  0  0  0  0  4           0  0  0
    5.6685    1.3604   -0.5083 C   0  0  0  0  0  4           0  0  0
    3.7283    2.4175   -1.4291 C   0  0  0  0  0  4           0  0  0
    2.0417    1.2236    0.7064 C   0  0  0  0  0  4           0  0  0
    4.1023    0.0770    1.5534 C   0  0  0  0  0  4           0  0  0
    6.2363    0.1722    0.2635 C   0  0  0  0  0  4           0  0  0
    5.6228    0.0823    1.6519 C   0  0  0  0  0  4           0  0  0
  1  3  2  0     0  0
  1  6  1  0     0  0
  1 18  1  0     0  0
  2  7  1  0     0  0
  2  8  1  0     0  0
  4  9  1  0     0  0
  4 10  1  0     0  0
  4 20  1  0     0  0
  5 19  1  0     0  0
  5 21  1  0     0  0
  5 22  1  0     0  0
  6 11  2  0     0  0
  6 12  1  0     0  0
  7  9  2  0     0  0
  7 13  1  0     0  0
  8 10  2  0     0  0
  8 14  1  0     0  0
  9 11  1  0     0  0
 10 15  1  0     0  0
 12 13  2  0     0  0
 14 16  2  0     0  0
 15 17  2  0     0  0
 16 17  1  0     0  0
 19 23  1  0     0  0
 19 24  1  0     0  0
 20 23  1  0     0  0
 21 25  1  0     0  0
 24 26  1  0     0  0
 25 26  1  0     0  0
M  END
> <standard_type>
pIC50

> <# Confs.>
25

> <canonical_smiles>
CN1CCCCC1CCN2C3=C(C=CC(S(C)=O)=C3)SC4=C2C=CC=C4

> <standard_relation>
=

> <Publication_ID>
nan

> <predicted_activity_value>
nan

> <actual_activity_value>
0.2596373105057561

> <Compound>
Mesoridazine

> <standard_units>
uM

> hash
8364680936651860466

$$$$
30
XXILIB    08252103503D 0   0.00000     0.00000

 26 29  0     1  0            999 V2000
    0.2155    0.8966    5.1961 S   0  0  2  0  0  4           0  0  0
   -2.9902   -0.9007   -0.0034 S   0  0  0  0  0  2           0  0  0
    1.6193    1.2245    4.7807 O   0  0  0  0  0  2           0  0  0
    0.0000    0.0000    0.0000 N   0  0  2  0  0  3           0  0  0
    4.1332    0.8081   -1.1943 N   0  0  2  0  0  3           0  0  0
   -0.6416    0.4084    3.6978 C   0  0  0  0  0  4           0  0  0
   -2.0125   -0.3563    1.3795 C   0  0  0  0  0  4           0  0  0
   -2.0049   -0.3751   -1.3875 C   0  0  0  0  0  4           0  0  0
   -0.6553   -0.0000    1.2629 C   0  0  0  0  0  4           0  0  0
   -0.6502   -0.0094   -1.2647 C   0  0  0  0  0  4           0  0  0
    0.0055    0.3864    2.4536 C   0  0  0  0  0  4           0  0  0
   -1.9798    0.0440    3.7802 C   0  0  0  0  0  4           0  0  0
   -2.6597   -0.3356    2.6280 C   0  0  0  0  0  4           0  0  0
   -2.6434   -0.3753   -2.6420 C   0  0  0  0  0  4           0  0  0
    0.0115    0.3745   -2.4535 C   0  0  0  0  0  4           0  0  0
   -1.9579    0.0007   -3.7914 C   0  0  0  0  0  4           0  0  0
   -0.6289    0.3789   -3.6963 C   0  0  0  0  0  4           0  0  0
   -0.6473    2.4651    5.4676 C   0  0  0  0  0  4           0  0  0
    3.5733    1.4754    0.0000 C   0  0  1  0  0  4           0  0  0
    1.4571   -0.0000   -0.0000 C   0  0  0  0  0  4           0  0  0
    3.9734    1.6051   -2.4191 C   0  0  0  0  0  4           0  0  0
    5.5241    0.4008   -0.9931 C   0  0  0  0  0  4           0  0  0
    2.0417    1.4128    0.0000 C   0  0  0  0  0  4           0  0  0
    4.0697    2.9254    0.1637 C   0  0  0  0  0  4           0  0  0
    4.4910    3.0397   -2.3069 C   0  0  0  0  0  4           0  0  0
    3.8907    3.7558   -1.1036 C   0  0  0  0  0  4           0  0  0
  1  3  2  0     0  0
  1  6  1  0     0  0
  1 18  1  0     0  0
  2  7  1  0     0  0
  2  8  1  0     0  0
  4  9  1  0     0  0
  4 10  1  0     0  0
  4 20  1  0     0  0
  5 19  1  0     0  0
  5 21  1  0     0  0
  5 22  1  0     0  0
  6 11  2  0     0  0
  6 12  1  0     0  0
  7  9  2  0     0  0
  7 13  1  0     0  0
  8 10  2  0     0  0
  8 14  1  0     0  0
  9 11  1  0     0  0
 10 15  1  0     0  0
 12 13  2  0     0  0
 14 16  2  0     0  0
 15 17  2  0     0  0
 16 17  1  0     0  0
 19 23  1  0     0  0
 19 24  1  0     0  0
 20 23  1  0     0  0
 21 25  1  0     0  0
 24 26  1  0     0  0
 25 26  1  0     0  0
M  END
> <standard_type>
pIC50

> <# Confs.>
25

> <canonical_smiles>
CN1CCCCC1CCN2C3=C(C=CC(S(C)=O)=C3)SC4=C2C=CC=C4

> <standard_relation>
=

> <Publication_ID>
nan

> <predicted_activity_value>
nan

> <actual_activity_value>
0.2596373105057561

> <Compound>
Mesoridazine

> <standard_units>
uM

> hash
8364680936651860466

$$$$
30
XXILIB    08252103503D 0   0.00000     0.00000

 26 29  0     1  0            999 V2000
    0.2838   -0.9388    5.1475 S   0  0  2  0  0  4           0  0  0
   -2.9868    0.9106    0.0040 S   0  0  0  0  0  2           0  0  0
    1.6613   -1.2793    4.6604 O   0  0  0  0  0  2           0  0  0
    0.0000   -0.0000    0.0000 N   0  0  2  0  0  3           0  0  0
    4.1292   -2.8518    0.0000 N   0  0  2  0  0  3           0  0  0
   -0.6350   -0.4095    3.7005 C   0  0  0  0  0  4           0  0  0
   -2.0076    0.3633    1.3839 C   0  0  0  0  0  4           0  0  0
   -2.0067    0.3803   -1.3825 C   0  0  0  0  0  4           0  0  0
   -0.6533    0.0000    1.2635 C   0  0  0  0  0  4           0  0  0
   -0.6519    0.0136   -1.2636 C   0  0  0  0  0  4           0  0  0
    0.0061   -0.3937    2.4518 C   0  0  0  0  0  4           0  0  0
   -1.9714   -0.0409    3.7859 C   0  0  0  0  0  4           0  0  0
   -2.6509    0.3448    2.6346 C   0  0  0  0  0  4           0  0  0
   -2.6492    0.3800   -2.6350 C   0  0  0  0  0  4           0  0  0
    0.0074   -0.3673   -2.4547 C   0  0  0  0  0  4           0  0  0
   -1.9667    0.0061   -3.7864 C   0  0  0  0  0  4           0  0  0
   -0.6366   -0.3697   -3.6958 C   0  0  0  0  0  4           0  0  0
    0.3851    0.6704    5.9712 C   0  0  0  0  0  4           0  0  0
    3.5733   -1.4754    0.0000 C   0  0  1  0  0  4           0  0  0
    1.4571    0.0000    0.0000 C   0  0  0  0  0  4           0  0  0
    5.6033   -2.8292   -0.0102 C   0  0  0  0  0  4           0  0  0
    3.6708   -3.6718    1.1212 C   0  0  0  0  0  4           0  0  0
    2.0417   -1.4128    0.0000 C   0  0  0  0  0  4           0  0  0
    4.0728   -0.7260   -1.2565 C   0  0  0  0  0  4           0  0  0
    6.1496   -2.1108   -1.2413 C   0  0  0  0  0  4           0  0  0
    5.5935   -0.7000   -1.3424 C   0  0  0  0  0  4           0  0  0
  1  3  2  0     0  0
  1  6  1  0     0  0
  1 18  1  0     0  0
  2  7  1  0     0  0
  2  8  1  0     0  0
  4  9  1  0     0  0
  4 10  1  0     0  0
  4 20  1  0     0  0
  5 19  1  0     0  0
  5 21  1  0     0  0
  5 22  1  0     0  0
  6 11  2  0     0  0
  6 12  1  0     0  0
  7  9  2  0     0  0
  7 13  1  0     0  0
  8 10  2  0     0  0
  8 14  1  0     0  0
  9 11  1  0     0  0
 10 15  1  0     0  0
 12 13  2  0     0  0
 14 16  2  0     0  0
 15 17  2  0     0  0
 16 17  1  0     0  0
 19 23  1  0     0  0
 19 24  1  0     0  0
 20 23  1  0     0  0
 21 25  1  0     0  0
 24 26  1  0     0  0
 25 26  1  0     0  0
M  END
> <standard_type>
pIC50

> <# Confs.>
25

> <canonical_smiles>
CN1CCCCC1CCN2C3=C(C=CC(S(C)=O)=C3)SC4=C2C=CC=C4

> <standard_relation>
=

> <Publication_ID>
nan

> <predicted_activity_value>
nan

> <actual_activity_value>
0.2596373105057561

> <Compound>
Mesoridazine

> <standard_units>
uM

> hash
8364680936651860466

$$$$
30
XXILIB    08252103503D 0   0.00000     0.00000

 26 29  0     1  0            999 V2000
    0.1175    1.2458    5.0856 S   0  0  2  0  0  4           0  0  0
   -2.8457   -1.2360    0.0157 S   0  0  0  0  0  2           0  0  0
    1.4686    1.6819    4.6006 O   0  0  0  0  0  2           0  0  0
    0.0000    0.0000    0.0000 N   0  0  2  0  0  3           0  0  0
    2.2236   -3.7421    0.7950 N   0  0  2  0  0  3           0  0  0
   -0.7227    0.5604    3.6566 C   0  0  0  0  0  4           0  0  0
   -1.9710   -0.5046    1.3846 C   0  0  0  0  0  4           0  0  0
   -1.9690   -0.5428   -1.3723 C   0  0  0  0  0  4           0  0  0
   -0.6631   -0.0000    1.2565 C   0  0  0  0  0  4           0  0  0
   -0.6637   -0.0240   -1.2534 C   0  0  0  0  0  4           0  0  0
   -0.0621    0.5341    2.4184 C   0  0  0  0  0  4           0  0  0
   -2.0062    0.0341    3.7569 C   0  0  0  0  0  4           0  0  0
   -2.6259   -0.4934    2.6270 C   0  0  0  0  0  4           0  0  0
   -2.6285   -0.5592   -2.6138 C   0  0  0  0  0  4           0  0  0
   -0.0825    0.5168   -2.4202 C   0  0  0  0  0  4           0  0  0
   -2.0161   -0.0408   -3.7496 C   0  0  0  0  0  4           0  0  0
   -0.7444    0.5030   -3.6516 C   0  0  0  0  0  4           0  0  0
   -0.8960    2.7347    5.2706 C   0  0  0  0  0  4           0  0  0
    1.6448   -2.5712    0.0931 C   0  0  1  0  0  4           0  0  0
    1.4571   -0.0000    0.0000 C   0  0  0  0  0  4           0  0  0
    1.7984   -5.0045    0.1642 C   0  0  0  0  0  4           0  0  0
    1.8718   -3.7766    2.2177 C   0  0  0  0  0  4           0  0  0
    2.0417   -1.2236    0.7064 C   0  0  0  0  0  4           0  0  0
    2.0545   -2.5859   -1.3964 C   0  0  0  0  0  4           0  0  0
    2.2134   -5.0744   -1.3030 C   0  0  0  0  0  4           0  0  0
    1.6629   -3.8896   -2.0809 C   0  0  0  0  0  4           0  0  0
  1  3  2  0     0  0
  1  6  1  0     0  0
  1 18  1  0     0  0
  2  7  1  0     0  0
  2  8  1  0     0  0
  4  9  1  0     0  0
  4 10  1  0     0  0
  4 20  1  0     0  0
  5 19  1  0     0  0
  5 21  1  0     0  0
  5 22  1  0     0  0
  6 11  2  0     0  0
  6 12  1  0     0  0
  7  9  2  0     0  0
  7 13  1  0     0  0
  8 10  2  0     0  0
  8 14  1  0     0  0
  9 11  1  0     0  0
 10 15  1  0     0  0
 12 13  2  0     0  0
 14 16  2  0     0  0
 15 17  2  0     0  0
 16 17  1  0     0  0
 19 23  1  0     0  0
 19 24  1  0     0  0
 20 23  1  0     0  0
 21 25  1  0     0  0
 24 26  1  0     0  0
 25 26  1  0     0  0
M  END
> <standard_type>
pIC50

> <# Confs.>
25

> <canonical_smiles>
CN1CCCCC1CCN2C3=C(C=CC(S(C)=O)=C3)SC4=C2C=CC=C4

> <standard_relation>
=

> <Publication_ID>
nan

> <predicted_activity_value>
nan

> <actual_activity_value>
0.2596373105057561

> <Compound>
Mesoridazine

> <standard_units>
uM

> hash
8364680936651860466

$$$$
30
XXILIB    08252103503D 0   0.00000     0.00000

 26 29  0     1  0            999 V2000
    0.2838   -0.9388    5.1475 S   0  0  2  0  0  4           0  0  0
   -2.9868    0.9106    0.0040 S   0  0  0  0  0  2           0  0  0
    1.6613   -1.2793    4.6604 O   0  0  0  0  0  2           0  0  0
    0.0000   -0.0000    0.0000 N   0  0  2  0  0  3           0  0  0
    4.0962   -0.7991   -1.2073 N   0  0  2  0  0  3           0  0  0
   -0.6350   -0.4095    3.7005 C   0  0  0  0  0  4           0  0  0
   -2.0076    0.3633    1.3839 C   0  0  0  0  0  4           0  0  0
   -2.0067    0.3803   -1.3825 C   0  0  0  0  0  4           0  0  0
   -0.6533    0.0000    1.2635 C   0  0  0  0  0  4           0  0  0
   -0.6519    0.0136   -1.2636 C   0  0  0  0  0  4           0  0  0
    0.0061   -0.3937    2.4518 C   0  0  0  0  0  4           0  0  0
   -1.9714   -0.0409    3.7859 C   0  0  0  0  0  4           0  0  0
   -2.6509    0.3448    2.6346 C   0  0  0  0  0  4           0  0  0
   -2.6492    0.3800   -2.6350 C   0  0  0  0  0  4           0  0  0
    0.0074   -0.3673   -2.4547 C   0  0  0  0  0  4           0  0  0
   -1.9667    0.0061   -3.7864 C   0  0  0  0  0  4           0  0  0
   -0.6366   -0.3697   -3.6958 C   0  0  0  0  0  4           0  0  0
    0.3851    0.6704    5.9712 C   0  0  0  0  0  4           0  0  0
    3.5733   -1.4754    0.0000 C   0  0  1  0  0  4           0  0  0
    1.4571    0.0000   -0.0000 C   0  0  0  0  0  4           0  0  0
    3.9384   -1.6023   -2.4286 C   0  0  0  0  0  4           0  0  0
    5.4786   -0.3537   -1.0292 C   0  0  0  0  0  4           0  0  0
    2.0417   -1.4128    0.0000 C   0  0  0  0  0  4           0  0  0
    4.1135   -2.9120    0.1565 C   0  0  0  0  0  4           0  0  0
    4.4894   -3.0247   -2.3224 C   0  0  0  0  0  4           0  0  0
    3.9296   -3.7499   -1.1051 C   0  0  0  0  0  4           0  0  0
  1  3  2  0     0  0
  1  6  1  0     0  0
  1 18  1  0     0  0
  2  7  1  0     0  0
  2  8  1  0     0  0
  4  9  1  0     0  0
  4 10  1  0     0  0
  4 20  1  0     0  0
  5 19  1  0     0  0
  5 21  1  0     0  0
  5 22  1  0     0  0
  6 11  2  0     0  0
  6 12  1  0     0  0
  7  9  2  0     0  0
  7 13  1  0     0  0
  8 10  2  0     0  0
  8 14  1  0     0  0
  9 11  1  0     0  0
 10 15  1  0     0  0
 12 13  2  0     0  0
 14 16  2  0     0  0
 15 17  2  0     0  0
 16 17  1  0     0  0
 19 23  1  0     0  0
 19 24  1  0     0  0
 20 23  1  0     0  0
 21 25  1  0     0  0
 24 26  1  0     0  0
 25 26  1  0     0  0
M  END
> <standard_type>
pIC50

> <# Confs.>
25

> <canonical_smiles>
CN1CCCCC1CCN2C3=C(C=CC(S(C)=O)=C3)SC4=C2C=CC=C4

> <standard_relation>
=

> <Publication_ID>
nan

> <predicted_activity_value>
nan

> <actual_activity_value>
0.2596373105057561

> <Compound>
Mesoridazine

> <standard_units>
uM

> hash
8364680936651860466

$$$$
30
XXILIB    08252103503D 0   0.00000     0.00000

 26 29  0     1  0            999 V2000
    0.2155    0.8966    5.1961 S   0  0  2  0  0  4           0  0  0
   -2.9902   -0.9007   -0.0034 S   0  0  0  0  0  2           0  0  0
    1.6193    1.2245    4.7807 O   0  0  0  0  0  2           0  0  0
    0.0000    0.0000    0.0000 N   0  0  2  0  0  3           0  0  0
    4.0962    0.7991    1.2073 N   0  0  2  0  0  3           0  0  0
   -0.6416    0.4084    3.6978 C   0  0  0  0  0  4           0  0  0
   -2.0125   -0.3563    1.3795 C   0  0  0  0  0  4           0  0  0
   -2.0049   -0.3751   -1.3875 C   0  0  0  0  0  4           0  0  0
   -0.6553   -0.0000    1.2629 C   0  0  0  0  0  4           0  0  0
   -0.6502   -0.0094   -1.2647 C   0  0  0  0  0  4           0  0  0
    0.0055    0.3864    2.4536 C   0  0  0  0  0  4           0  0  0
   -1.9798    0.0440    3.7802 C   0  0  0  0  0  4           0  0  0
   -2.6597   -0.3356    2.6280 C   0  0  0  0  0  4           0  0  0
   -2.6434   -0.3753   -2.6420 C   0  0  0  0  0  4           0  0  0
    0.0115    0.3745   -2.4535 C   0  0  0  0  0  4           0  0  0
   -1.9579    0.0007   -3.7914 C   0  0  0  0  0  4           0  0  0
   -0.6289    0.3789   -3.6963 C   0  0  0  0  0  4           0  0  0
   -0.6473    2.4651    5.4676 C   0  0  0  0  0  4           0  0  0
    3.5733    1.4754   -0.0000 C   0  0  1  0  0  4           0  0  0
    1.4571   -0.0000    0.0000 C   0  0  0  0  0  4           0  0  0
    3.9384    1.6023    2.4286 C   0  0  0  0  0  4           0  0  0
    5.4786    0.3537    1.0292 C   0  0  0  0  0  4           0  0  0
    2.0417    1.4128    0.0000 C   0  0  0  0  0  4           0  0  0
    4.1135    2.9120   -0.1565 C   0  0  0  0  0  4           0  0  0
    4.4894    3.0247    2.3224 C   0  0  0  0  0  4           0  0  0
    3.9296    3.7499    1.1051 C   0  0  0  0  0  4           0  0  0
  1  3  2  0     0  0
  1  6  1  0     0  0
  1 18  1  0     0  0
  2  7  1  0     0  0
  2  8  1  0     0  0
  4  9  1  0     0  0
  4 10  1  0     0  0
  4 20  1  0     0  0
  5 19  1  0     0  0
  5 21  1  0     0  0
  5 22  1  0     0  0
  6 11  2  0     0  0
  6 12  1  0     0  0
  7  9  2  0     0  0
  7 13  1  0     0  0
  8 10  2  0     0  0
  8 14  1  0     0  0
  9 11  1  0     0  0
 10 15  1  0     0  0
 12 13  2  0     0  0
 14 16  2  0     0  0
 15 17  2  0     0  0
 16 17  1  0     0  0
 19 23  1  0     0  0
 19 24  1  0     0  0
 20 23  1  0     0  0
 21 25  1  0     0  0
 24 26  1  0     0  0
 25 26  1  0     0  0
M  END
> <standard_type>
pIC50

> <# Confs.>
25

> <canonical_smiles>
CN1CCCCC1CCN2C3=C(C=CC(S(C)=O)=C3)SC4=C2C=CC=C4

> <standard_relation>
=

> <Publication_ID>
nan

> <predicted_activity_value>
nan

> <actual_activity_value>
0.2596373105057561

> <Compound>
Mesoridazine

> <standard_units>
uM

> hash
8364680936651860466

$$$$
30
XXILIB    08252103503D 0   0.00000     0.00000

 26 29  0     1  0            999 V2000
    0.1010   -1.2579    5.0809 S   0  0  2  0  0  4           0  0  0
   -2.8444    1.2321    0.0031 S   0  0  0  0  0  2           0  0  0
    1.4374   -1.7308    4.5896 O   0  0  0  0  0  2           0  0  0
    0.0000   -0.0000    0.0000 N   0  0  2  0  0  3           0  0  0
    2.2236    3.7421   -0.7950 N   0  0  2  0  0  3           0  0  0
   -0.7251   -0.5461    3.6566 C   0  0  0  0  0  4           0  0  0
   -1.9743    0.5050    1.3784 C   0  0  0  0  0  4           0  0  0
   -1.9701    0.5210   -1.3782 C   0  0  0  0  0  4           0  0  0
   -0.6660    0.0000    1.2543 C   0  0  0  0  0  4           0  0  0
   -0.6633    0.0069   -1.2536 C   0  0  0  0  0  4           0  0  0
   -0.0683   -0.5361    2.4167 C   0  0  0  0  0  4           0  0  0
   -2.0148   -0.0329    3.7502 C   0  0  0  0  0  4           0  0  0
   -2.6332    0.4921    2.6183 C   0  0  0  0  0  4           0  0  0
   -2.6315    0.5163   -2.6186 C   0  0  0  0  0  4           0  0  0
   -0.0808   -0.5484   -2.4127 C   0  0  0  0  0  4           0  0  0
   -2.0197   -0.0202   -3.7468 C   0  0  0  0  0  4           0  0  0
   -0.7458   -0.5583   -3.6423 C   0  0  0  0  0  4           0  0  0
    0.3755    0.2807    5.9949 C   0  0  0  0  0  4           0  0  0
    1.6448    2.5712   -0.0931 C   0  0  1  0  0  4           0  0  0
    1.4571    0.0000   -0.0000 C   0  0  0  0  0  4           0  0  0
    1.7984    5.0045   -0.1642 C   0  0  0  0  0  4           0  0  0
    1.8718    3.7766   -2.2177 C   0  0  0  0  0  4           0  0  0
    2.0417    1.2236   -0.7064 C   0  0  0  0  0  4           0  0  0
    2.0545    2.5859    1.3964 C   0  0  0  0  0  4           0  0  0
    2.2134    5.0744    1.3030 C   0  0  0  0  0  4           0  0  0
    1.6629    3.8896    2.0809 C   0  0  0  0  0  4           0  0  0
  1  3  2  0     0  0
  1  6  1  0     0  0
  1 18  1  0     0  0
  2  7  1  0     0  0
  2  8  1  0     0  0
  4  9  1  0     0  0
  4 10  1  0     0  0
  4 20  1  0     0  0
  5 19  1  0     0  0
  5 21  1  0     0  0
  5 22  1  0     0  0
  6 11  2  0     0  0
  6 12  1  0     0  0
  7  9  2  0     0  0
  7 13  1  0     0  0
  8 10  2  0     0  0
  8 14  1  0     0  0
  9 11  1  0     0  0
 10 15  1  0     0  0
 12 13  2  0     0  0
 14 16  2  0     0  0
 15 17  2  0     0  0
 16 17  1  0     0  0
 19 23  1  0     0  0
 19 24  1  0     0  0
 20 23  1  0     0  0
 21 25  1  0     0  0
 24 26  1  0     0  0
 25 26  1  0     0  0
M  END
> <standard_type>
pIC50

> <# Confs.>
25

> <canonical_smiles>
CN1CCCCC1CCN2C3=C(C=CC(S(C)=O)=C3)SC4=C2C=CC=C4

> <standard_relation>
=

> <Publication_ID>
nan

> <predicted_activity_value>
nan

> <actual_activity_value>
0.2596373105057561

> <Compound>
Mesoridazine

> <standard_units>
uM

> hash
8364680936651860466

$$$$
30
XXILIB    08252103503D 0   0.00000     0.00000

 26 29  0     1  0            999 V2000
    0.2838   -0.9388    5.1475 S   0  0  2  0  0  4           0  0  0
   -2.9868    0.9106    0.0040 S   0  0  0  0  0  2           0  0  0
   -0.6707   -0.8420    6.3010 O   0  0  0  0  0  2           0  0  0
    0.0000   -0.0000    0.0000 N   0  0  2  0  0  3           0  0  0
    4.1162   -2.8552    0.0000 N   0  0  2  0  0  3           0  0  0
   -0.6350   -0.4095    3.7005 C   0  0  0  0  0  4           0  0  0
   -2.0076    0.3633    1.3839 C   0  0  0  0  0  4           0  0  0
   -2.0067    0.3803   -1.3825 C   0  0  0  0  0  4           0  0  0
   -0.6533    0.0000    1.2635 C   0  0  0  0  0  4           0  0  0
   -0.6519    0.0136   -1.2636 C   0  0  0  0  0  4           0  0  0
    0.0061   -0.3937    2.4518 C   0  0  0  0  0  4           0  0  0
   -1.9714   -0.0409    3.7859 C   0  0  0  0  0  4           0  0  0
   -2.6509    0.3448    2.6346 C   0  0  0  0  0  4           0  0  0
   -2.6492    0.3800   -2.6350 C   0  0  0  0  0  4           0  0  0
    0.0074   -0.3673   -2.4547 C   0  0  0  0  0  4           0  0  0
   -1.9667    0.0061   -3.7864 C   0  0  0  0  0  4           0  0  0
   -0.6366   -0.3697   -3.6958 C   0  0  0  0  0  4           0  0  0
    0.4298   -2.6905    4.7134 C   0  0  0  0  0  4           0  0  0
    3.5733   -1.4754    0.0000 C   0  0  1  0  0  4           0  0  0
    1.4571    0.0000    0.0000 C   0  0  0  0  0  4           0  0  0
    5.5900   -2.8473   -0.0091 C   0  0  0  0  0  4           0  0  0
    3.6356   -3.6497   -1.1344 C   0  0  0  0  0  4           0  0  0
    2.0417   -1.4128    0.0000 C   0  0  0  0  0  4           0  0  0
    4.1085   -0.6913    1.2189 C   0  0  0  0  0  4           0  0  0
    6.1616   -2.1094    1.1987 C   0  0  0  0  0  4           0  0  0
    5.6314   -0.6860    1.2673 C   0  0  0  0  0  4           0  0  0
  1  3  2  0     0  0
  1  6  1  0     0  0
  1 18  1  0     0  0
  2  7  1  0     0  0
  2  8  1  0     0  0
  4  9  1  0     0  0
  4 10  1  0     0  0
  4 20  1  0     0  0
  5 19  1  0     0  0
  5 21  1  0     0  0
  5 22  1  0     0  0
  6 11  2  0     0  0
  6 12  1  0     0  0
  7  9  2  0     0  0
  7 13  1  0     0  0
  8 10  2  0     0  0
  8 14  1  0     0  0
  9 11  1  0     0  0
 10 15  1  0     0  0
 12 13  2  0     0  0
 14 16  2  0     0  0
 15 17  2  0     0  0
 16 17  1  0     0  0
 19 23  1  0     0  0
 19 24  1  0     0  0
 20 23  1  0     0  0
 21 25  1  0     0  0
 24 26  1  0     0  0
 25 26  1  0     0  0
M  END
> <standard_type>
pIC50

> <# Confs.>
25

> <canonical_smiles>
CN1CCCCC1CCN2C3=C(C=CC(S(C)=O)=C3)SC4=C2C=CC=C4

> <standard_relation>
=

> <Publication_ID>
nan

> <predicted_activity_value>
nan

> <actual_activity_value>
0.2596373105057561

> <Compound>
Mesoridazine

> <standard_units>
uM

> hash
8364680936651860466

$$$$
30
XXILIB    08252103503D 0   0.00000     0.00000

 26 29  0     1  0            999 V2000
    0.2838   -0.9388    5.1475 S   0  0  2  0  0  4           0  0  0
   -2.9868    0.9106    0.0040 S   0  0  0  0  0  2           0  0  0
   -0.6707   -0.8420    6.3010 O   0  0  0  0  0  2           0  0  0
    0.0000   -0.0000    0.0000 N   0  0  2  0  0  3           0  0  0
    4.1332   -0.8081    1.1943 N   0  0  2  0  0  3           0  0  0
   -0.6350   -0.4095    3.7005 C   0  0  0  0  0  4           0  0  0
   -2.0076    0.3633    1.3839 C   0  0  0  0  0  4           0  0  0
   -2.0067    0.3803   -1.3825 C   0  0  0  0  0  4           0  0  0
   -0.6533    0.0000    1.2635 C   0  0  0  0  0  4           0  0  0
   -0.6519    0.0136   -1.2636 C   0  0  0  0  0  4           0  0  0
    0.0061   -0.3937    2.4518 C   0  0  0  0  0  4           0  0  0
   -1.9714   -0.0409    3.7859 C   0  0  0  0  0  4           0  0  0
   -2.6509    0.3448    2.6346 C   0  0  0  0  0  4           0  0  0
   -2.6492    0.3800   -2.6350 C   0  0  0  0  0  4           0  0  0
    0.0074   -0.3673   -2.4547 C   0  0  0  0  0  4           0  0  0
   -1.9667    0.0061   -3.7864 C   0  0  0  0  0  4           0  0  0
   -0.6366   -0.3697   -3.6958 C   0  0  0  0  0  4           0  0  0
    0.4298   -2.6905    4.7134 C   0  0  0  0  0  4           0  0  0
    3.5733   -1.4754    0.0000 C   0  0  1  0  0  4           0  0  0
    1.4571    0.0000    0.0000 C   0  0  0  0  0  4           0  0  0
    3.9734   -1.6051    2.4191 C   0  0  0  0  0  4           0  0  0
    5.5241   -0.4008    0.9931 C   0  0  0  0  0  4           0  0  0
    2.0417   -1.4128   -0.0000 C   0  0  0  0  0  4           0  0  0
    4.0697   -2.9254   -0.1637 C   0  0  0  0  0  4           0  0  0
    4.4910   -3.0397    2.3069 C   0  0  0  0  0  4           0  0  0
    3.8907   -3.7558    1.1036 C   0  0  0  0  0  4           0  0  0
  1  3  2  0     0  0
  1  6  1  0     0  0
  1 18  1  0     0  0
  2  7  1  0     0  0
  2  8  1  0     0  0
  4  9  1  0     0  0
  4 10  1  0     0  0
  4 20  1  0     0  0
  5 19  1  0     0  0
  5 21  1  0     0  0
  5 22  1  0     0  0
  6 11  2  0     0  0
  6 12  1  0     0  0
  7  9  2  0     0  0
  7 13  1  0     0  0
  8 10  2  0     0  0
  8 14  1  0     0  0
  9 11  1  0     0  0
 10 15  1  0     0  0
 12 13  2  0     0  0
 14 16  2  0     0  0
 15 17  2  0     0  0
 16 17  1  0     0  0
 19 23  1  0     0  0
 19 24  1  0     0  0
 20 23  1  0     0  0
 21 25  1  0     0  0
 24 26  1  0     0  0
 25 26  1  0     0  0
M  END
> <standard_type>
pIC50

> <# Confs.>
25

> <canonical_smiles>
CN1CCCCC1CCN2C3=C(C=CC(S(C)=O)=C3)SC4=C2C=CC=C4

> <standard_relation>
=

> <Publication_ID>
nan

> <predicted_activity_value>
nan

> <actual_activity_value>
0.2596373105057561

> <Compound>
Mesoridazine

> <standard_units>
uM

> hash
8364680936651860466

$$$$
30
XXILIB    08252103503D 0   0.00000     0.00000

 26 29  0     1  0            999 V2000
    0.1175    1.2458    5.0856 S   0  0  2  0  0  4           0  0  0
   -2.8457   -1.2360    0.0157 S   0  0  0  0  0  2           0  0  0
    1.4686    1.6819    4.6006 O   0  0  0  0  0  2           0  0  0
    0.0000    0.0000    0.0000 N   0  0  2  0  0  3           0  0  0
    4.2120   -1.2998   -0.6022 N   0  0  2  0  0  3           0  0  0
   -0.7227    0.5604    3.6566 C   0  0  0  0  0  4           0  0  0
   -1.9710   -0.5046    1.3846 C   0  0  0  0  0  4           0  0  0
   -1.9690   -0.5428   -1.3723 C   0  0  0  0  0  4           0  0  0
   -0.6631   -0.0000    1.2565 C   0  0  0  0  0  4           0  0  0
   -0.6637   -0.0240   -1.2534 C   0  0  0  0  0  4           0  0  0
   -0.0621    0.5341    2.4184 C   0  0  0  0  0  4           0  0  0
   -2.0062    0.0341    3.7569 C   0  0  0  0  0  4           0  0  0
   -2.6259   -0.4934    2.6270 C   0  0  0  0  0  4           0  0  0
   -2.6285   -0.5592   -2.6138 C   0  0  0  0  0  4           0  0  0
   -0.0825    0.5168   -2.4202 C   0  0  0  0  0  4           0  0  0
   -2.0161   -0.0408   -3.7496 C   0  0  0  0  0  4           0  0  0
   -0.7444    0.5030   -3.6516 C   0  0  0  0  0  4           0  0  0
   -0.8960    2.7347    5.2706 C   0  0  0  0  0  4           0  0  0
    3.5733   -1.2777    0.7377 C   0  0  1  0  0  4           0  0  0
    1.4571    0.0000   -0.0000 C   0  0  0  0  0  4           0  0  0
    5.6813   -1.3416   -0.4894 C   0  0  0  0  0  4           0  0  0
    3.7652   -2.4056   -1.4491 C   0  0  0  0  0  4           0  0  0
    2.0417   -1.2236    0.7064 C   0  0  0  0  0  4           0  0  0
    4.0701   -0.0383    1.5167 C   0  0  0  0  0  4           0  0  0
    6.2258   -0.1292    0.2615 C   0  0  0  0  0  4           0  0  0
    5.5884   -0.0061    1.6356 C   0  0  0  0  0  4           0  0  0
  1  3  2  0     0  0
  1  6  1  0     0  0
  1 18  1  0     0  0
  2  7  1  0     0  0
  2  8  1  0     0  0
  4  9  1  0     0  0
  4 10  1  0     0  0
  4 20  1  0     0  0
  5 19  1  0     0  0
  5 21  1  0     0  0
  5 22  1  0     0  0
  6 11  2  0     0  0
  6 12  1  0     0  0
  7  9  2  0     0  0
  7 13  1  0     0  0
  8 10  2  0     0  0
  8 14  1  0     0  0
  9 11  1  0     0  0
 10 15  1  0     0  0
 12 13  2  0     0  0
 14 16  2  0     0  0
 15 17  2  0     0  0
 16 17  1  0     0  0
 19 23  1  0     0  0
 19 24  1  0     0  0
 20 23  1  0     0  0
 21 25  1  0     0  0
 24 26  1  0     0  0
 25 26  1  0     0  0
M  END
> <standard_type>
pIC50

> <# Confs.>
25

> <canonical_smiles>
CN1CCCCC1CCN2C3=C(C=CC(S(C)=O)=C3)SC4=C2C=CC=C4

> <standard_relation>
=

> <Publication_ID>
nan

> <predicted_activity_value>
nan

> <actual_activity_value>
0.2596373105057561

> <Compound>
Mesoridazine

> <standard_units>
uM

> hash
8364680936651860466

$$$$
30
XXILIB    08252103503D 0   0.00000     0.00000

 26 29  0     1  0            999 V2000
    0.1010   -1.2579    5.0809 S   0  0  2  0  0  4           0  0  0
   -2.8444    1.2321    0.0031 S   0  0  0  0  0  2           0  0  0
   -0.8549   -1.1129    6.2280 O   0  0  0  0  0  2           0  0  0
    0.0000   -0.0000    0.0000 N   0  0  2  0  0  3           0  0  0
    4.1992    1.2993   -0.6064 N   0  0  2  0  0  3           0  0  0
   -0.7251   -0.5461    3.6566 C   0  0  0  0  0  4           0  0  0
   -1.9743    0.5050    1.3784 C   0  0  0  0  0  4           0  0  0
   -1.9701    0.5210   -1.3782 C   0  0  0  0  0  4           0  0  0
   -0.6660    0.0000    1.2543 C   0  0  0  0  0  4           0  0  0
   -0.6633    0.0069   -1.2536 C   0  0  0  0  0  4           0  0  0
   -0.0683   -0.5361    2.4167 C   0  0  0  0  0  4           0  0  0
   -2.0148   -0.0329    3.7502 C   0  0  0  0  0  4           0  0  0
   -2.6332    0.4921    2.6183 C   0  0  0  0  0  4           0  0  0
   -2.6315    0.5163   -2.6186 C   0  0  0  0  0  4           0  0  0
   -0.0808   -0.5484   -2.4127 C   0  0  0  0  0  4           0  0  0
   -2.0197   -0.0202   -3.7468 C   0  0  0  0  0  4           0  0  0
   -0.7458   -0.5583   -3.6423 C   0  0  0  0  0  4           0  0  0
    0.0489   -2.9883    4.5504 C   0  0  0  0  0  4           0  0  0
    3.5733    1.2777    0.7377 C   0  0  1  0  0  4           0  0  0
    1.4571    0.0000   -0.0000 C   0  0  0  0  0  4           0  0  0
    5.6685    1.3604   -0.5083 C   0  0  0  0  0  4           0  0  0
    3.7283    2.4175   -1.4291 C   0  0  0  0  0  4           0  0  0
    2.0417    1.2236    0.7064 C   0  0  0  0  0  4           0  0  0
    4.1023    0.0770    1.5534 C   0  0  0  0  0  4           0  0  0
    6.2363    0.1722    0.2635 C   0  0  0  0  0  4           0  0  0
    5.6228    0.0823    1.6519 C   0  0  0  0  0  4           0  0  0
  1  3  2  0     0  0
  1  6  1  0     0  0
  1 18  1  0     0  0
  2  7  1  0     0  0
  2  8  1  0     0  0
  4  9  1  0     0  0
  4 10  1  0     0  0
  4 20  1  0     0  0
  5 19  1  0     0  0
  5 21  1  0     0  0
  5 22  1  0     0  0
  6 11  2  0     0  0
  6 12  1  0     0  0
  7  9  2  0     0  0
  7 13  1  0     0  0
  8 10  2  0     0  0
  8 14  1  0     0  0
  9 11  1  0     0  0
 10 15  1  0     0  0
 12 13  2  0     0  0
 14 16  2  0     0  0
 15 17  2  0     0  0
 16 17  1  0     0  0
 19 23  1  0     0  0
 19 24  1  0     0  0
 20 23  1  0     0  0
 21 25  1  0     0  0
 24 26  1  0     0  0
 25 26  1  0     0  0
M  END
> <standard_type>
pIC50

> <# Confs.>
25

> <canonical_smiles>
CN1CCCCC1CCN2C3=C(C=CC(S(C)=O)=C3)SC4=C2C=CC=C4

> <standard_relation>
=

> <Publication_ID>
nan

> <predicted_activity_value>
nan

> <actual_activity_value>
0.2596373105057561

> <Compound>
Mesoridazine

> <standard_units>
uM

> hash
8364680936651860466

$$$$
30
XXILIB    08252103503D 0   0.00000     0.00000

 26 29  0     1  0            999 V2000
    0.2155    0.8966    5.1961 S   0  0  2  0  0  4           0  0  0
   -2.9902   -0.9007   -0.0034 S   0  0  0  0  0  2           0  0  0
   -0.7937    0.7936    6.3014 O   0  0  0  0  0  2           0  0  0
    0.0000    0.0000    0.0000 N   0  0  2  0  0  3           0  0  0
    4.0962    0.7991    1.2073 N   0  0  2  0  0  3           0  0  0
   -0.6416    0.4084    3.6978 C   0  0  0  0  0  4           0  0  0
   -2.0125   -0.3563    1.3795 C   0  0  0  0  0  4           0  0  0
   -2.0049   -0.3751   -1.3875 C   0  0  0  0  0  4           0  0  0
   -0.6553   -0.0000    1.2629 C   0  0  0  0  0  4           0  0  0
   -0.6502   -0.0094   -1.2647 C   0  0  0  0  0  4           0  0  0
    0.0055    0.3864    2.4536 C   0  0  0  0  0  4           0  0  0
   -1.9798    0.0440    3.7802 C   0  0  0  0  0  4           0  0  0
   -2.6597   -0.3356    2.6280 C   0  0  0  0  0  4           0  0  0
   -2.6434   -0.3753   -2.6420 C   0  0  0  0  0  4           0  0  0
    0.0115    0.3745   -2.4535 C   0  0  0  0  0  4           0  0  0
   -1.9579    0.0007   -3.7914 C   0  0  0  0  0  4           0  0  0
   -0.6289    0.3789   -3.6963 C   0  0  0  0  0  4           0  0  0
    1.3090   -0.5404    5.3280 C   0  0  0  0  0  4           0  0  0
    3.5733    1.4754   -0.0000 C   0  0  1  0  0  4           0  0  0
    1.4571   -0.0000    0.0000 C   0  0  0  0  0  4           0  0  0
    3.9384    1.6023    2.4286 C   0  0  0  0  0  4           0  0  0
    5.4786    0.3537    1.0292 C   0  0  0  0  0  4           0  0  0
    2.0417    1.4128    0.0000 C   0  0  0  0  0  4           0  0  0
    4.1135    2.9120   -0.1565 C   0  0  0  0  0  4           0  0  0
    4.4894    3.0247    2.3224 C   0  0  0  0  0  4           0  0  0
    3.9296    3.7499    1.1051 C   0  0  0  0  0  4           0  0  0
  1  3  2  0     0  0
  1  6  1  0     0  0
  1 18  1  0     0  0
  2  7  1  0     0  0
  2  8  1  0     0  0
  4  9  1  0     0  0
  4 10  1  0     0  0
  4 20  1  0     0  0
  5 19  1  0     0  0
  5 21  1  0     0  0
  5 22  1  0     0  0
  6 11  2  0     0  0
  6 12  1  0     0  0
  7  9  2  0     0  0
  7 13  1  0     0  0
  8 10  2  0     0  0
  8 14  1  0     0  0
  9 11  1  0     0  0
 10 15  1  0     0  0
 12 13  2  0     0  0
 14 16  2  0     0  0
 15 17  2  0     0  0
 16 17  1  0     0  0
 19 23  1  0     0  0
 19 24  1  0     0  0
 20 23  1  0     0  0
 21 25  1  0     0  0
 24 26  1  0     0  0
 25 26  1  0     0  0
M  END
> <standard_type>
pIC50

> <# Confs.>
25

> <canonical_smiles>
CN1CCCCC1CCN2C3=C(C=CC(S(C)=O)=C3)SC4=C2C=CC=C4

> <standard_relation>
=

> <Publication_ID>
nan

> <predicted_activity_value>
nan

> <actual_activity_value>
0.2596373105057561

> <Compound>
Mesoridazine

> <standard_units>
uM

> hash
8364680936651860466

$$$$
30
XXILIB    08252103503D 0   0.00000     0.00000

 26 29  0     1  0            999 V2000
    0.1175    1.2458    5.0856 S   0  0  2  0  0  4           0  0  0
   -2.8457   -1.2360    0.0157 S   0  0  0  0  0  2           0  0  0
   -0.8466    1.1253    6.2287 O   0  0  0  0  0  2           0  0  0
    0.0000    0.0000    0.0000 N   0  0  2  0  0  3           0  0  0
    4.1992   -1.2993    0.6064 N   0  0  2  0  0  3           0  0  0
   -0.7227    0.5604    3.6566 C   0  0  0  0  0  4           0  0  0
   -1.9710   -0.5046    1.3846 C   0  0  0  0  0  4           0  0  0
   -1.9690   -0.5428   -1.3723 C   0  0  0  0  0  4           0  0  0
   -0.6631   -0.0000    1.2565 C   0  0  0  0  0  4           0  0  0
   -0.6637   -0.0240   -1.2534 C   0  0  0  0  0  4           0  0  0
   -0.0621    0.5341    2.4184 C   0  0  0  0  0  4           0  0  0
   -2.0062    0.0341    3.7569 C   0  0  0  0  0  4           0  0  0
   -2.6259   -0.4934    2.6270 C   0  0  0  0  0  4           0  0  0
   -2.6285   -0.5592   -2.6138 C   0  0  0  0  0  4           0  0  0
   -0.0825    0.5168   -2.4202 C   0  0  0  0  0  4           0  0  0
   -2.0161   -0.0408   -3.7496 C   0  0  0  0  0  4           0  0  0
   -0.7444    0.5030   -3.6516 C   0  0  0  0  0  4           0  0  0
    1.3573   -0.0585    5.2854 C   0  0  0  0  0  4           0  0  0
    3.5733   -1.2777   -0.7377 C   0  0  1  0  0  4           0  0  0
    1.4571   -0.0000    0.0000 C   0  0  0  0  0  4           0  0  0
    5.6685   -1.3604    0.5083 C   0  0  0  0  0  4           0  0  0
    3.7283   -2.4175    1.4291 C   0  0  0  0  0  4           0  0  0
    2.0417   -1.2236   -0.7064 C   0  0  0  0  0  4           0  0  0
    4.1023   -0.0770   -1.5534 C   0  0  0  0  0  4           0  0  0
    6.2363   -0.1722   -0.2635 C   0  0  0  0  0  4           0  0  0
    5.6228   -0.0823   -1.6519 C   0  0  0  0  0  4           0  0  0
  1  3  2  0     0  0
  1  6  1  0     0  0
  1 18  1  0     0  0
  2  7  1  0     0  0
  2  8  1  0     0  0
  4  9  1  0     0  0
  4 10  1  0     0  0
  4 20  1  0     0  0
  5 19  1  0     0  0
  5 21  1  0     0  0
  5 22  1  0     0  0
  6 11  2  0     0  0
  6 12  1  0     0  0
  7  9  2  0     0  0
  7 13  1  0     0  0
  8 10  2  0     0  0
  8 14  1  0     0  0
  9 11  1  0     0  0
 10 15  1  0     0  0
 12 13  2  0     0  0
 14 16  2  0     0  0
 15 17  2  0     0  0
 16 17  1  0     0  0
 19 23  1  0     0  0
 19 24  1  0     0  0
 20 23  1  0     0  0
 21 25  1  0     0  0
 24 26  1  0     0  0
 25 26  1  0     0  0
M  END
> <standard_type>
pIC50

> <# Confs.>
25

> <canonical_smiles>
CN1CCCCC1CCN2C3=C(C=CC(S(C)=O)=C3)SC4=C2C=CC=C4

> <standard_relation>
=

> <Publication_ID>
nan

> <predicted_activity_value>
nan

> <actual_activity_value>
0.2596373105057561

> <Compound>
Mesoridazine

> <standard_units>
uM

> hash
8364680936651860466

$$$$
30
XXILIB    08252103503D 0   0.00000     0.00000

 26 29  0     1  0            999 V2000
    0.1010   -1.2579    5.0809 S   0  0  2  0  0  4           0  0  0
   -2.8444    1.2321    0.0031 S   0  0  0  0  0  2           0  0  0
    1.4374   -1.7308    4.5896 O   0  0  0  0  0  2           0  0  0
    0.0000   -0.0000    0.0000 N   0  0  2  0  0  3           0  0  0
    2.2182    3.7516    0.7872 N   0  0  2  0  0  3           0  0  0
   -0.7251   -0.5461    3.6566 C   0  0  0  0  0  4           0  0  0
   -1.9743    0.5050    1.3784 C   0  0  0  0  0  4           0  0  0
   -1.9701    0.5210   -1.3782 C   0  0  0  0  0  4           0  0  0
   -0.6660    0.0000    1.2543 C   0  0  0  0  0  4           0  0  0
   -0.6633    0.0069   -1.2536 C   0  0  0  0  0  4           0  0  0
   -0.0683   -0.5361    2.4167 C   0  0  0  0  0  4           0  0  0
   -2.0148   -0.0329    3.7502 C   0  0  0  0  0  4           0  0  0
   -2.6332    0.4921    2.6183 C   0  0  0  0  0  4           0  0  0
   -2.6315    0.5163   -2.6186 C   0  0  0  0  0  4           0  0  0
   -0.0808   -0.5484   -2.4127 C   0  0  0  0  0  4           0  0  0
   -2.0197   -0.0202   -3.7468 C   0  0  0  0  0  4           0  0  0
   -0.7458   -0.5583   -3.6423 C   0  0  0  0  0  4           0  0  0
    0.3755    0.2807    5.9949 C   0  0  0  0  0  4           0  0  0
    1.6448    2.5712    0.0931 C   0  0  1  0  0  4           0  0  0
    1.4571    0.0000    0.0000 C   0  0  0  0  0  4           0  0  0
    1.8005    5.0059    0.1348 C   0  0  0  0  0  4           0  0  0
    1.8842    3.8176    2.2097 C   0  0  0  0  0  4           0  0  0
    2.0417    1.2236    0.7064 C   0  0  0  0  0  4           0  0  0
    2.1130    2.5714   -1.3802 C   0  0  0  0  0  4           0  0  0
    2.2516    5.0631   -1.3224 C   0  0  0  0  0  4           0  0  0
    1.7410    3.8614   -2.1001 C   0  0  0  0  0  4           0  0  0
  1  3  2  0     0  0
  1  6  1  0     0  0
  1 18  1  0     0  0
  2  7  1  0     0  0
  2  8  1  0     0  0
  4  9  1  0     0  0
  4 10  1  0     0  0
  4 20  1  0     0  0
  5 19  1  0     0  0
  5 21  1  0     0  0
  5 22  1  0     0  0
  6 11  2  0     0  0
  6 12  1  0     0  0
  7  9  2  0     0  0
  7 13  1  0     0  0
  8 10  2  0     0  0
  8 14  1  0     0  0
  9 11  1  0     0  0
 10 15  1  0     0  0
 12 13  2  0     0  0
 14 16  2  0     0  0
 15 17  2  0     0  0
 16 17  1  0     0  0
 19 23  1  0     0  0
 19 24  1  0     0  0
 20 23  1  0     0  0
 21 25  1  0     0  0
 24 26  1  0     0  0
 25 26  1  0     0  0
M  END
> <standard_type>
pIC50

> <# Confs.>
25

> <canonical_smiles>
CN1CCCCC1CCN2C3=C(C=CC(S(C)=O)=C3)SC4=C2C=CC=C4

> <standard_relation>
=

> <Publication_ID>
nan

> <predicted_activity_value>
nan

> <actual_activity_value>
0.2596373105057561

> <Compound>
Mesoridazine

> <standard_units>
uM

> hash
8364680936651860466

$$$$
30
XXILIB    08252103503D 0   0.00000     0.00000

 26 29  0     1  0            999 V2000
    0.1175    1.2458    5.0856 S   0  0  2  0  0  4           0  0  0
   -2.8457   -1.2360    0.0157 S   0  0  0  0  0  2           0  0  0
   -0.8466    1.1253    6.2287 O   0  0  0  0  0  2           0  0  0
    0.0000    0.0000    0.0000 N   0  0  2  0  0  3           0  0  0
    2.2236   -3.7421    0.7950 N   0  0  2  0  0  3           0  0  0
   -0.7227    0.5604    3.6566 C   0  0  0  0  0  4           0  0  0
   -1.9710   -0.5046    1.3846 C   0  0  0  0  0  4           0  0  0
   -1.9690   -0.5428   -1.3723 C   0  0  0  0  0  4           0  0  0
   -0.6631   -0.0000    1.2565 C   0  0  0  0  0  4           0  0  0
   -0.6637   -0.0240   -1.2534 C   0  0  0  0  0  4           0  0  0
   -0.0621    0.5341    2.4184 C   0  0  0  0  0  4           0  0  0
   -2.0062    0.0341    3.7569 C   0  0  0  0  0  4           0  0  0
   -2.6259   -0.4934    2.6270 C   0  0  0  0  0  4           0  0  0
   -2.6285   -0.5592   -2.6138 C   0  0  0  0  0  4           0  0  0
   -0.0825    0.5168   -2.4202 C   0  0  0  0  0  4           0  0  0
   -2.0161   -0.0408   -3.7496 C   0  0  0  0  0  4           0  0  0
   -0.7444    0.5030   -3.6516 C   0  0  0  0  0  4           0  0  0
    1.3573   -0.0585    5.2854 C   0  0  0  0  0  4           0  0  0
    1.6448   -2.5712    0.0931 C   0  0  1  0  0  4           0  0  0
    1.4571   -0.0000    0.0000 C   0  0  0  0  0  4           0  0  0
    1.7984   -5.0045    0.1642 C   0  0  0  0  0  4           0  0  0
    1.8718   -3.7766    2.2177 C   0  0  0  0  0  4           0  0  0
    2.0417   -1.2236    0.7064 C   0  0  0  0  0  4           0  0  0
    2.0545   -2.5859   -1.3964 C   0  0  0  0  0  4           0  0  0
    2.2134   -5.0744   -1.3030 C   0  0  0  0  0  4           0  0  0
    1.6629   -3.8896   -2.0809 C   0  0  0  0  0  4           0  0  0
  1  3  2  0     0  0
  1  6  1  0     0  0
  1 18  1  0     0  0
  2  7  1  0     0  0
  2  8  1  0     0  0
  4  9  1  0     0  0
  4 10  1  0     0  0
  4 20  1  0     0  0
  5 19  1  0     0  0
  5 21  1  0     0  0
  5 22  1  0     0  0
  6 11  2  0     0  0
  6 12  1  0     0  0
  7  9  2  0     0  0
  7 13  1  0     0  0
  8 10  2  0     0  0
  8 14  1  0     0  0
  9 11  1  0     0  0
 10 15  1  0     0  0
 12 13  2  0     0  0
 14 16  2  0     0  0
 15 17  2  0     0  0
 16 17  1  0     0  0
 19 23  1  0     0  0
 19 24  1  0     0  0
 20 23  1  0     0  0
 21 25  1  0     0  0
 24 26  1  0     0  0
 25 26  1  0     0  0
M  END
> <standard_type>
pIC50

> <# Confs.>
25

> <canonical_smiles>
CN1CCCCC1CCN2C3=C(C=CC(S(C)=O)=C3)SC4=C2C=CC=C4

> <standard_relation>
=

> <Publication_ID>
nan

> <predicted_activity_value>
nan

> <actual_activity_value>
0.2596373105057561

> <Compound>
Mesoridazine

> <standard_units>
uM

> hash
8364680936651860466

$$$$
30
XXILIB    08252103503D 0   0.00000     0.00000

 26 29  0     1  0            999 V2000
    0.2155    0.8966    5.1961 S   0  0  2  0  0  4           0  0  0
   -2.9902   -0.9007   -0.0034 S   0  0  0  0  0  2           0  0  0
    1.6511    0.5101    4.9953 O   0  0  0  0  0  2           0  0  0
    0.0000    0.0000    0.0000 N   0  0  2  0  0  3           0  0  0
    4.1292    2.8518    0.0000 N   0  0  2  0  0  3           0  0  0
   -0.6416    0.4084    3.6978 C   0  0  0  0  0  4           0  0  0
   -2.0125   -0.3563    1.3795 C   0  0  0  0  0  4           0  0  0
   -2.0049   -0.3751   -1.3875 C   0  0  0  0  0  4           0  0  0
   -0.6553   -0.0000    1.2629 C   0  0  0  0  0  4           0  0  0
   -0.6502   -0.0094   -1.2647 C   0  0  0  0  0  4           0  0  0
    0.0055    0.3864    2.4536 C   0  0  0  0  0  4           0  0  0
   -1.9798    0.0440    3.7802 C   0  0  0  0  0  4           0  0  0
   -2.6597   -0.3356    2.6280 C   0  0  0  0  0  4           0  0  0
   -2.6434   -0.3753   -2.6420 C   0  0  0  0  0  4           0  0  0
    0.0115    0.3745   -2.4535 C   0  0  0  0  0  4           0  0  0
   -1.9579    0.0007   -3.7914 C   0  0  0  0  0  4           0  0  0
   -0.6289    0.3789   -3.6963 C   0  0  0  0  0  4           0  0  0
    0.1019    2.6890    4.9662 C   0  0  0  0  0  4           0  0  0
    3.5733    1.4754   -0.0000 C   0  0  1  0  0  4           0  0  0
    1.4571    0.0000   -0.0000 C   0  0  0  0  0  4           0  0  0
    5.6033    2.8292    0.0102 C   0  0  0  0  0  4           0  0  0
    3.6708    3.6718   -1.1212 C   0  0  0  0  0  4           0  0  0
    2.0417    1.4128    0.0000 C   0  0  0  0  0  4           0  0  0
    4.0728    0.7260    1.2565 C   0  0  0  0  0  4           0  0  0
    6.1496    2.1108    1.2413 C   0  0  0  0  0  4           0  0  0
    5.5935    0.7000    1.3424 C   0  0  0  0  0  4           0  0  0
  1  3  2  0     0  0
  1  6  1  0     0  0
  1 18  1  0     0  0
  2  7  1  0     0  0
  2  8  1  0     0  0
  4  9  1  0     0  0
  4 10  1  0     0  0
  4 20  1  0     0  0
  5 19  1  0     0  0
  5 21  1  0     0  0
  5 22  1  0     0  0
  6 11  2  0     0  0
  6 12  1  0     0  0
  7  9  2  0     0  0
  7 13  1  0     0  0
  8 10  2  0     0  0
  8 14  1  0     0  0
  9 11  1  0     0  0
 10 15  1  0     0  0
 12 13  2  0     0  0
 14 16  2  0     0  0
 15 17  2  0     0  0
 16 17  1  0     0  0
 19 23  1  0     0  0
 19 24  1  0     0  0
 20 23  1  0     0  0
 21 25  1  0     0  0
 24 26  1  0     0  0
 25 26  1  0     0  0
M  END
> <standard_type>
pIC50

> <# Confs.>
25

> <canonical_smiles>
CN1CCCCC1CCN2C3=C(C=CC(S(C)=O)=C3)SC4=C2C=CC=C4

> <standard_relation>
=

> <Publication_ID>
nan

> <predicted_activity_value>
nan

> <actual_activity_value>
0.2596373105057561

> <Compound>
Mesoridazine

> <standard_units>
uM

> hash
8364680936651860466

$$$$
30
XXILIB    08252103503D 0   0.00000     0.00000

 26 29  0     1  0            999 V2000
    0.2838   -0.9388    5.1475 S   0  0  2  0  0  4           0  0  0
   -2.9868    0.9106    0.0040 S   0  0  0  0  0  2           0  0  0
    1.6613   -1.2793    4.6604 O   0  0  0  0  0  2           0  0  0
    0.0000   -0.0000    0.0000 N   0  0  2  0  0  3           0  0  0
    4.1162   -2.8552    0.0000 N   0  0  2  0  0  3           0  0  0
   -0.6350   -0.4095    3.7005 C   0  0  0  0  0  4           0  0  0
   -2.0076    0.3633    1.3839 C   0  0  0  0  0  4           0  0  0
   -2.0067    0.3803   -1.3825 C   0  0  0  0  0  4           0  0  0
   -0.6533    0.0000    1.2635 C   0  0  0  0  0  4           0  0  0
   -0.6519    0.0136   -1.2636 C   0  0  0  0  0  4           0  0  0
    0.0061   -0.3937    2.4518 C   0  0  0  0  0  4           0  0  0
   -1.9714   -0.0409    3.7859 C   0  0  0  0  0  4           0  0  0
   -2.6509    0.3448    2.6346 C   0  0  0  0  0  4           0  0  0
   -2.6492    0.3800   -2.6350 C   0  0  0  0  0  4           0  0  0
    0.0074   -0.3673   -2.4547 C   0  0  0  0  0  4           0  0  0
   -1.9667    0.0061   -3.7864 C   0  0  0  0  0  4           0  0  0
   -0.6366   -0.3697   -3.6958 C   0  0  0  0  0  4           0  0  0
    0.3851    0.6704    5.9712 C   0  0  0  0  0  4           0  0  0
    3.5733   -1.4754    0.0000 C   0  0  1  0  0  4           0  0  0
    1.4571    0.0000    0.0000 C   0  0  0  0  0  4           0  0  0
    5.5900   -2.8473   -0.0091 C   0  0  0  0  0  4           0  0  0
    3.6356   -3.6497   -1.1344 C   0  0  0  0  0  4           0  0  0
    2.0417   -1.4128    0.0000 C   0  0  0  0  0  4           0  0  0
    4.1085   -0.6913    1.2189 C   0  0  0  0  0  4           0  0  0
    6.1616   -2.1094    1.1987 C   0  0  0  0  0  4           0  0  0
    5.6314   -0.6860    1.2673 C   0  0  0  0  0  4           0  0  0
  1  3  2  0     0  0
  1  6  1  0     0  0
  1 18  1  0     0  0
  2  7  1  0     0  0
  2  8  1  0     0  0
  4  9  1  0     0  0
  4 10  1  0     0  0
  4 20  1  0     0  0
  5 19  1  0     0  0
  5 21  1  0     0  0
  5 22  1  0     0  0
  6 11  2  0     0  0
  6 12  1  0     0  0
  7  9  2  0     0  0
  7 13  1  0     0  0
  8 10  2  0     0  0
  8 14  1  0     0  0
  9 11  1  0     0  0
 10 15  1  0     0  0
 12 13  2  0     0  0
 14 16  2  0     0  0
 15 17  2  0     0  0
 16 17  1  0     0  0
 19 23  1  0     0  0
 19 24  1  0     0  0
 20 23  1  0     0  0
 21 25  1  0     0  0
 24 26  1  0     0  0
 25 26  1  0     0  0
M  END
> <standard_type>
pIC50

> <# Confs.>
25

> <canonical_smiles>
CN1CCCCC1CCN2C3=C(C=CC(S(C)=O)=C3)SC4=C2C=CC=C4

> <standard_relation>
=

> <Publication_ID>
nan

> <predicted_activity_value>
nan

> <actual_activity_value>
0.2596373105057561

> <Compound>
Mesoridazine

> <standard_units>
uM

> hash
8364680936651860466

$$$$
30
XXILIB    08252103503D 0   0.00000     0.00000

 26 29  0     1  0            999 V2000
    0.1175    1.2458    5.0856 S   0  0  2  0  0  4           0  0  0
   -2.8457   -1.2360    0.0157 S   0  0  0  0  0  2           0  0  0
    1.4686    1.6819    4.6006 O   0  0  0  0  0  2           0  0  0
    0.0000    0.0000    0.0000 N   0  0  2  0  0  3           0  0  0
    2.2182   -3.7516   -0.7872 N   0  0  2  0  0  3           0  0  0
   -0.7227    0.5604    3.6566 C   0  0  0  0  0  4           0  0  0
   -1.9710   -0.5046    1.3846 C   0  0  0  0  0  4           0  0  0
   -1.9690   -0.5428   -1.3723 C   0  0  0  0  0  4           0  0  0
   -0.6631   -0.0000    1.2565 C   0  0  0  0  0  4           0  0  0
   -0.6637   -0.0240   -1.2534 C   0  0  0  0  0  4           0  0  0
   -0.0621    0.5341    2.4184 C   0  0  0  0  0  4           0  0  0
   -2.0062    0.0341    3.7569 C   0  0  0  0  0  4           0  0  0
   -2.6259   -0.4934    2.6270 C   0  0  0  0  0  4           0  0  0
   -2.6285   -0.5592   -2.6138 C   0  0  0  0  0  4           0  0  0
   -0.0825    0.5168   -2.4202 C   0  0  0  0  0  4           0  0  0
   -2.0161   -0.0408   -3.7496 C   0  0  0  0  0  4           0  0  0
   -0.7444    0.5030   -3.6516 C   0  0  0  0  0  4           0  0  0
   -0.8960    2.7347    5.2706 C   0  0  0  0  0  4           0  0  0
    1.6448   -2.5712   -0.0931 C   0  0  1  0  0  4           0  0  0
    1.4571   -0.0000   -0.0000 C   0  0  0  0  0  4           0  0  0
    1.8005   -5.0059   -0.1348 C   0  0  0  0  0  4           0  0  0
    1.8842   -3.8176   -2.2097 C   0  0  0  0  0  4           0  0  0
    2.0417   -1.2236   -0.7064 C   0  0  0  0  0  4           0  0  0
    2.1130   -2.5714    1.3802 C   0  0  0  0  0  4           0  0  0
    2.2516   -5.0631    1.3224 C   0  0  0  0  0  4           0  0  0
    1.7410   -3.8614    2.1001 C   0  0  0  0  0  4           0  0  0
  1  3  2  0     0  0
  1  6  1  0     0  0
  1 18  1  0     0  0
  2  7  1  0     0  0
  2  8  1  0     0  0
  4  9  1  0     0  0
  4 10  1  0     0  0
  4 20  1  0     0  0
  5 19  1  0     0  0
  5 21  1  0     0  0
  5 22  1  0     0  0
  6 11  2  0     0  0
  6 12  1  0     0  0
  7  9  2  0     0  0
  7 13  1  0     0  0
  8 10  2  0     0  0
  8 14  1  0     0  0
  9 11  1  0     0  0
 10 15  1  0     0  0
 12 13  2  0     0  0
 14 16  2  0     0  0
 15 17  2  0     0  0
 16 17  1  0     0  0
 19 23  1  0     0  0
 19 24  1  0     0  0
 20 23  1  0     0  0
 21 25  1  0     0  0
 24 26  1  0     0  0
 25 26  1  0     0  0
M  END
> <standard_type>
pIC50

> <# Confs.>
25

> <canonical_smiles>
CN1CCCCC1CCN2C3=C(C=CC(S(C)=O)=C3)SC4=C2C=CC=C4

> <standard_relation>
=

> <Publication_ID>
nan

> <predicted_activity_value>
nan

> <actual_activity_value>
0.2596373105057561

> <Compound>
Mesoridazine

> <standard_units>
uM

> hash
8364680936651860466

$$$$
30
XXILIB    08252103503D 0   0.00000     0.00000

 26 29  0     1  0            999 V2000
    0.1010   -1.2579    5.0809 S   0  0  2  0  0  4           0  0  0
   -2.8444    1.2321    0.0031 S   0  0  0  0  0  2           0  0  0
   -0.8549   -1.1129    6.2280 O   0  0  0  0  0  2           0  0  0
    0.0000   -0.0000    0.0000 N   0  0  2  0  0  3           0  0  0
    2.2236    3.7421   -0.7950 N   0  0  2  0  0  3           0  0  0
   -0.7251   -0.5461    3.6566 C   0  0  0  0  0  4           0  0  0
   -1.9743    0.5050    1.3784 C   0  0  0  0  0  4           0  0  0
   -1.9701    0.5210   -1.3782 C   0  0  0  0  0  4           0  0  0
   -0.6660    0.0000    1.2543 C   0  0  0  0  0  4           0  0  0
   -0.6633    0.0069   -1.2536 C   0  0  0  0  0  4           0  0  0
   -0.0683   -0.5361    2.4167 C   0  0  0  0  0  4           0  0  0
   -2.0148   -0.0329    3.7502 C   0  0  0  0  0  4           0  0  0
   -2.6332    0.4921    2.6183 C   0  0  0  0  0  4           0  0  0
   -2.6315    0.5163   -2.6186 C   0  0  0  0  0  4           0  0  0
   -0.0808   -0.5484   -2.4127 C   0  0  0  0  0  4           0  0  0
   -2.0197   -0.0202   -3.7468 C   0  0  0  0  0  4           0  0  0
   -0.7458   -0.5583   -3.6423 C   0  0  0  0  0  4           0  0  0
    0.0489   -2.9883    4.5504 C   0  0  0  0  0  4           0  0  0
    1.6448    2.5712   -0.0931 C   0  0  1  0  0  4           0  0  0
    1.4571    0.0000   -0.0000 C   0  0  0  0  0  4           0  0  0
    1.7984    5.0045   -0.1642 C   0  0  0  0  0  4           0  0  0
    1.8718    3.7766   -2.2177 C   0  0  0  0  0  4           0  0  0
    2.0417    1.2236   -0.7064 C   0  0  0  0  0  4           0  0  0
    2.0545    2.5859    1.3964 C   0  0  0  0  0  4           0  0  0
    2.2134    5.0744    1.3030 C   0  0  0  0  0  4           0  0  0
    1.6629    3.8896    2.0809 C   0  0  0  0  0  4           0  0  0
  1  3  2  0     0  0
  1  6  1  0     0  0
  1 18  1  0     0  0
  2  7  1  0     0  0
  2  8  1  0     0  0
  4  9  1  0     0  0
  4 10  1  0     0  0
  4 20  1  0     0  0
  5 19  1  0     0  0
  5 21  1  0     0  0
  5 22  1  0     0  0
  6 11  2  0     0  0
  6 12  1  0     0  0
  7  9  2  0     0  0
  7 13  1  0     0  0
  8 10  2  0     0  0
  8 14  1  0     0  0
  9 11  1  0     0  0
 10 15  1  0     0  0
 12 13  2  0     0  0
 14 16  2  0     0  0
 15 17  2  0     0  0
 16 17  1  0     0  0
 19 23  1  0     0  0
 19 24  1  0     0  0
 20 23  1  0     0  0
 21 25  1  0     0  0
 24 26  1  0     0  0
 25 26  1  0     0  0
M  END
> <standard_type>
pIC50

> <# Confs.>
25

> <canonical_smiles>
CN1CCCCC1CCN2C3=C(C=CC(S(C)=O)=C3)SC4=C2C=CC=C4

> <standard_relation>
=

> <Publication_ID>
nan

> <predicted_activity_value>
nan

> <actual_activity_value>
0.2596373105057561

> <Compound>
Mesoridazine

> <standard_units>
uM

> hash
8364680936651860466

$$$$
30
XXILIB    08252103503D 0   0.00000     0.00000

 26 29  0     1  0            999 V2000
    0.1010   -1.2579    5.0809 S   0  0  2  0  0  4           0  0  0
   -2.8444    1.2321    0.0031 S   0  0  0  0  0  2           0  0  0
   -0.8549   -1.1129    6.2280 O   0  0  0  0  0  2           0  0  0
    0.0000   -0.0000    0.0000 N   0  0  2  0  0  3           0  0  0
    2.2182    3.7516    0.7872 N   0  0  2  0  0  3           0  0  0
   -0.7251   -0.5461    3.6566 C   0  0  0  0  0  4           0  0  0
   -1.9743    0.5050    1.3784 C   0  0  0  0  0  4           0  0  0
   -1.9701    0.5210   -1.3782 C   0  0  0  0  0  4           0  0  0
   -0.6660    0.0000    1.2543 C   0  0  0  0  0  4           0  0  0
   -0.6633    0.0069   -1.2536 C   0  0  0  0  0  4           0  0  0
   -0.0683   -0.5361    2.4167 C   0  0  0  0  0  4           0  0  0
   -2.0148   -0.0329    3.7502 C   0  0  0  0  0  4           0  0  0
   -2.6332    0.4921    2.6183 C   0  0  0  0  0  4           0  0  0
   -2.6315    0.5163   -2.6186 C   0  0  0  0  0  4           0  0  0
   -0.0808   -0.5484   -2.4127 C   0  0  0  0  0  4           0  0  0
   -2.0197   -0.0202   -3.7468 C   0  0  0  0  0  4           0  0  0
   -0.7458   -0.5583   -3.6423 C   0  0  0  0  0  4           0  0  0
    0.0489   -2.9883    4.5504 C   0  0  0  0  0  4           0  0  0
    1.6448    2.5712    0.0931 C   0  0  1  0  0  4           0  0  0
    1.4571    0.0000    0.0000 C   0  0  0  0  0  4           0  0  0
    1.8005    5.0059    0.1348 C   0  0  0  0  0  4           0  0  0
    1.8842    3.8176    2.2097 C   0  0  0  0  0  4           0  0  0
    2.0417    1.2236    0.7064 C   0  0  0  0  0  4           0  0  0
    2.1130    2.5714   -1.3802 C   0  0  0  0  0  4           0  0  0
    2.2516    5.0631   -1.3224 C   0  0  0  0  0  4           0  0  0
    1.7410    3.8614   -2.1001 C   0  0  0  0  0  4           0  0  0
  1  3  2  0     0  0
  1  6  1  0     0  0
  1 18  1  0     0  0
  2  7  1  0     0  0
  2  8  1  0     0  0
  4  9  1  0     0  0
  4 10  1  0     0  0
  4 20  1  0     0  0
  5 19  1  0     0  0
  5 21  1  0     0  0
  5 22  1  0     0  0
  6 11  2  0     0  0
  6 12  1  0     0  0
  7  9  2  0     0  0
  7 13  1  0     0  0
  8 10  2  0     0  0
  8 14  1  0     0  0
  9 11  1  0     0  0
 10 15  1  0     0  0
 12 13  2  0     0  0
 14 16  2  0     0  0
 15 17  2  0     0  0
 16 17  1  0     0  0
 19 23  1  0     0  0
 19 24  1  0     0  0
 20 23  1  0     0  0
 21 25  1  0     0  0
 24 26  1  0     0  0
 25 26  1  0     0  0
M  END
> <standard_type>
pIC50

> <# Confs.>
25

> <canonical_smiles>
CN1CCCCC1CCN2C3=C(C=CC(S(C)=O)=C3)SC4=C2C=CC=C4

> <standard_relation>
=

> <Publication_ID>
nan

> <predicted_activity_value>
nan

> <actual_activity_value>
0.2596373105057561

> <Compound>
Mesoridazine

> <standard_units>
uM

> hash
8364680936651860466

$$$$
30
XXILIB    08252103503D 0   0.00000     0.00000

 26 29  0     1  0            999 V2000
    0.1175    1.2458    5.0856 S   0  0  2  0  0  4           0  0  0
   -2.8457   -1.2360    0.0157 S   0  0  0  0  0  2           0  0  0
    1.4686    1.6819    4.6006 O   0  0  0  0  0  2           0  0  0
    0.0000    0.0000    0.0000 N   0  0  2  0  0  3           0  0  0
    4.1332   -0.1027    1.4384 N   0  0  2  0  0  3           0  0  0
   -0.7227    0.5604    3.6566 C   0  0  0  0  0  4           0  0  0
   -1.9710   -0.5046    1.3846 C   0  0  0  0  0  4           0  0  0
   -1.9690   -0.5428   -1.3723 C   0  0  0  0  0  4           0  0  0
   -0.6631   -0.0000    1.2565 C   0  0  0  0  0  4           0  0  0
   -0.6637   -0.0240   -1.2534 C   0  0  0  0  0  4           0  0  0
   -0.0621    0.5341    2.4184 C   0  0  0  0  0  4           0  0  0
   -2.0062    0.0341    3.7569 C   0  0  0  0  0  4           0  0  0
   -2.6259   -0.4934    2.6270 C   0  0  0  0  0  4           0  0  0
   -2.6285   -0.5592   -2.6138 C   0  0  0  0  0  4           0  0  0
   -0.0825    0.5168   -2.4202 C   0  0  0  0  0  4           0  0  0
   -2.0161   -0.0408   -3.7496 C   0  0  0  0  0  4           0  0  0
   -0.7444    0.5030   -3.6516 C   0  0  0  0  0  4           0  0  0
   -0.8960    2.7347    5.2706 C   0  0  0  0  0  4           0  0  0
    3.5733   -1.2777    0.7377 C   0  0  1  0  0  4           0  0  0
    1.4571    0.0000    0.0000 C   0  0  0  0  0  4           0  0  0
    3.9734   -0.1805    2.8976 C   0  0  0  0  0  4           0  0  0
    5.5241    0.1494    1.0605 C   0  0  0  0  0  4           0  0  0
    2.0417   -1.2236    0.7064 C   0  0  0  0  0  4           0  0  0
    4.0697   -2.6153    1.3210 C   0  0  0  0  0  4           0  0  0
    4.4910   -1.4790    3.5177 C   0  0  0  0  0  4           0  0  0
    3.8907   -2.7008    2.8336 C   0  0  0  0  0  4           0  0  0
  1  3  2  0     0  0
  1  6  1  0     0  0
  1 18  1  0     0  0
  2  7  1  0     0  0
  2  8  1  0     0  0
  4  9  1  0     0  0
  4 10  1  0     0  0
  4 20  1  0     0  0
  5 19  1  0     0  0
  5 21  1  0     0  0
  5 22  1  0     0  0
  6 11  2  0     0  0
  6 12  1  0     0  0
  7  9  2  0     0  0
  7 13  1  0     0  0
  8 10  2  0     0  0
  8 14  1  0     0  0
  9 11  1  0     0  0
 10 15  1  0     0  0
 12 13  2  0     0  0
 14 16  2  0     0  0
 15 17  2  0     0  0
 16 17  1  0     0  0
 19 23  1  0     0  0
 19 24  1  0     0  0
 20 23  1  0     0  0
 21 25  1  0     0  0
 24 26  1  0     0  0
 25 26  1  0     0  0
M  END
> <standard_type>
pIC50

> <# Confs.>
25

> <canonical_smiles>
CN1CCCCC1CCN2C3=C(C=CC(S(C)=O)=C3)SC4=C2C=CC=C4

> <standard_relation>
=

> <Publication_ID>
nan

> <predicted_activity_value>
nan

> <actual_activity_value>
0.2596373105057561

> <Compound>
Mesoridazine

> <standard_units>
uM

> hash
8364680936651860466

$$$$
30
XXILIB    08252103503D 0   0.00000     0.00000

 26 29  0     1  0            999 V2000
    0.1175    1.2458    5.0856 S   0  0  2  0  0  4           0  0  0
   -2.8457   -1.2360    0.0157 S   0  0  0  0  0  2           0  0  0
    1.4686    1.6819    4.6006 O   0  0  0  0  0  2           0  0  0
    0.0000    0.0000    0.0000 N   0  0  2  0  0  3           0  0  0
    4.1992   -1.2993    0.6064 N   0  0  2  0  0  3           0  0  0
   -0.7227    0.5604    3.6566 C   0  0  0  0  0  4           0  0  0
   -1.9710   -0.5046    1.3846 C   0  0  0  0  0  4           0  0  0
   -1.9690   -0.5428   -1.3723 C   0  0  0  0  0  4           0  0  0
   -0.6631   -0.0000    1.2565 C   0  0  0  0  0  4           0  0  0
   -0.6637   -0.0240   -1.2534 C   0  0  0  0  0  4           0  0  0
   -0.0621    0.5341    2.4184 C   0  0  0  0  0  4           0  0  0
   -2.0062    0.0341    3.7569 C   0  0  0  0  0  4           0  0  0
   -2.6259   -0.4934    2.6270 C   0  0  0  0  0  4           0  0  0
   -2.6285   -0.5592   -2.6138 C   0  0  0  0  0  4           0  0  0
   -0.0825    0.5168   -2.4202 C   0  0  0  0  0  4           0  0  0
   -2.0161   -0.0408   -3.7496 C   0  0  0  0  0  4           0  0  0
   -0.7444    0.5030   -3.6516 C   0  0  0  0  0  4           0  0  0
   -0.8960    2.7347    5.2706 C   0  0  0  0  0  4           0  0  0
    3.5733   -1.2777   -0.7377 C   0  0  1  0  0  4           0  0  0
    1.4571   -0.0000    0.0000 C   0  0  0  0  0  4           0  0  0
    5.6685   -1.3604    0.5083 C   0  0  0  0  0  4           0  0  0
    3.7283   -2.4175    1.4291 C   0  0  0  0  0  4           0  0  0
    2.0417   -1.2236   -0.7064 C   0  0  0  0  0  4           0  0  0
    4.1023   -0.0770   -1.5534 C   0  0  0  0  0  4           0  0  0
    6.2363   -0.1722   -0.2635 C   0  0  0  0  0  4           0  0  0
    5.6228   -0.0823   -1.6519 C   0  0  0  0  0  4           0  0  0
  1  3  2  0     0  0
  1  6  1  0     0  0
  1 18  1  0     0  0
  2  7  1  0     0  0
  2  8  1  0     0  0
  4  9  1  0     0  0
  4 10  1  0     0  0
  4 20  1  0     0  0
  5 19  1  0     0  0
  5 21  1  0     0  0
  5 22  1  0     0  0
  6 11  2  0     0  0
  6 12  1  0     0  0
  7  9  2  0     0  0
  7 13  1  0     0  0
  8 10  2  0     0  0
  8 14  1  0     0  0
  9 11  1  0     0  0
 10 15  1  0     0  0
 12 13  2  0     0  0
 14 16  2  0     0  0
 15 17  2  0     0  0
 16 17  1  0     0  0
 19 23  1  0     0  0
 19 24  1  0     0  0
 20 23  1  0     0  0
 21 25  1  0     0  0
 24 26  1  0     0  0
 25 26  1  0     0  0
M  END
> <standard_type>
pIC50

> <# Confs.>
25

> <canonical_smiles>
CN1CCCCC1CCN2C3=C(C=CC(S(C)=O)=C3)SC4=C2C=CC=C4

> <standard_relation>
=

> <Publication_ID>
nan

> <predicted_activity_value>
nan

> <actual_activity_value>
0.2596373105057561

> <Compound>
Mesoridazine

> <standard_units>
uM

> hash
8364680936651860466

$$$$
30
XXILIB    08252103503D 0   0.00000     0.00000

 26 29  0     1  0            999 V2000
    0.2155    0.8966    5.1961 S   0  0  2  0  0  4           0  0  0
   -2.9902   -0.9007   -0.0034 S   0  0  0  0  0  2           0  0  0
   -0.7937    0.7936    6.3014 O   0  0  0  0  0  2           0  0  0
    0.0000    0.0000    0.0000 N   0  0  2  0  0  3           0  0  0
    4.1332    0.8081   -1.1943 N   0  0  2  0  0  3           0  0  0
   -0.6416    0.4084    3.6978 C   0  0  0  0  0  4           0  0  0
   -2.0125   -0.3563    1.3795 C   0  0  0  0  0  4           0  0  0
   -2.0049   -0.3751   -1.3875 C   0  0  0  0  0  4           0  0  0
   -0.6553   -0.0000    1.2629 C   0  0  0  0  0  4           0  0  0
   -0.6502   -0.0094   -1.2647 C   0  0  0  0  0  4           0  0  0
    0.0055    0.3864    2.4536 C   0  0  0  0  0  4           0  0  0
   -1.9798    0.0440    3.7802 C   0  0  0  0  0  4           0  0  0
   -2.6597   -0.3356    2.6280 C   0  0  0  0  0  4           0  0  0
   -2.6434   -0.3753   -2.6420 C   0  0  0  0  0  4           0  0  0
    0.0115    0.3745   -2.4535 C   0  0  0  0  0  4           0  0  0
   -1.9579    0.0007   -3.7914 C   0  0  0  0  0  4           0  0  0
   -0.6289    0.3789   -3.6963 C   0  0  0  0  0  4           0  0  0
    1.3090   -0.5404    5.3280 C   0  0  0  0  0  4           0  0  0
    3.5733    1.4754    0.0000 C   0  0  1  0  0  4           0  0  0
    1.4571   -0.0000   -0.0000 C   0  0  0  0  0  4           0  0  0
    3.9734    1.6051   -2.4191 C   0  0  0  0  0  4           0  0  0
    5.5241    0.4008   -0.9931 C   0  0  0  0  0  4           0  0  0
    2.0417    1.4128    0.0000 C   0  0  0  0  0  4           0  0  0
    4.0697    2.9254    0.1637 C   0  0  0  0  0  4           0  0  0
    4.4910    3.0397   -2.3069 C   0  0  0  0  0  4           0  0  0
    3.8907    3.7558   -1.1036 C   0  0  0  0  0  4           0  0  0
  1  3  2  0     0  0
  1  6  1  0     0  0
  1 18  1  0     0  0
  2  7  1  0     0  0
  2  8  1  0     0  0
  4  9  1  0     0  0
  4 10  1  0     0  0
  4 20  1  0     0  0
  5 19  1  0     0  0
  5 21  1  0     0  0
  5 22  1  0     0  0
  6 11  2  0     0  0
  6 12  1  0     0  0
  7  9  2  0     0  0
  7 13  1  0     0  0
  8 10  2  0     0  0
  8 14  1  0     0  0
  9 11  1  0     0  0
 10 15  1  0     0  0
 12 13  2  0     0  0
 14 16  2  0     0  0
 15 17  2  0     0  0
 16 17  1  0     0  0
 19 23  1  0     0  0
 19 24  1  0     0  0
 20 23  1  0     0  0
 21 25  1  0     0  0
 24 26  1  0     0  0
 25 26  1  0     0  0
M  END
> <standard_type>
pIC50

> <# Confs.>
25

> <canonical_smiles>
CN1CCCCC1CCN2C3=C(C=CC(S(C)=O)=C3)SC4=C2C=CC=C4

> <standard_relation>
=

> <Publication_ID>
nan

> <predicted_activity_value>
nan

> <actual_activity_value>
0.2596373105057561

> <Compound>
Mesoridazine

> <standard_units>
uM

> hash
8364680936651860466

$$$$
19
XXILIB    08252103503D 0   0.00000     0.00000

 28 30  0     1  0            999 V2000
    3.8138    4.5639    4.3035 S   0  0  2  0  0  6           0  0  0
    4.9334    5.2438    4.9251 O   0  0  0  0  0  2           0  0  0
    3.2529    3.3589    4.8847 O   0  0  0  0  0  2           0  0  0
    2.1977   -0.8798   -0.5080 O   0  0  0  0  0  2           0  0  0
   -6.8795   -1.9675   -0.6640 N   0  0  0  0  0  3           0  0  0
    4.1615    4.3030    2.6494 N   0  0  0  0  0  3           0  0  0
   -2.5319   -1.3107    0.7252 N   0  0  2  0  0  3           0  0  0
   -6.1562   -2.6170    0.2821 C   0  0  0  0  0  4           0  0  0
   -8.2281   -1.9485   -0.5283 C   0  0  0  0  0  4           0  0  0
    3.4902    3.2603    1.9205 C   0  0  0  0  0  4           0  0  0
    2.1731    1.1281    0.6600 C   0  0  0  0  0  4           0  0  0
   -6.7422   -3.2460    1.3758 C   0  0  0  0  0  4           0  0  0
   -8.8868   -2.5583    0.5331 C   0  0  0  0  0  4           0  0  0
    4.0705    1.9889    1.8964 C   0  0  0  0  0  4           0  0  0
    2.2283    3.4507    1.3484 C   0  0  0  0  0  4           0  0  0
    3.4221    0.9292    1.2582 C   0  0  0  0  0  4           0  0  0
    1.5757    2.3912    0.7110 C   0  0  0  0  0  4           0  0  0
   -8.1266   -3.2140    1.4943 C   0  0  0  0  0  4           0  0  0
    2.4890    5.7334    4.1304 C   0  0  0  0  0  4           0  0  0
    1.5104    0.0000    0.0000 C   0  0  0  0  0  4           0  0  0
   -3.9895   -1.4203    0.8158 C   0  0  0  0  0  4           0  0  0
   -2.0704   -0.1144    1.4476 C   0  0  0  0  0  4           0  0  0
   -2.0779   -1.2775   -0.6748 C   0  0  0  0  0  4           0  0  0
   -4.6593   -2.6067    0.1230 C   0  0  0  0  0  4           0  0  0
   -9.0138   -1.2350   -1.5857 C   0  0  0  0  0  4           0  0  0
    0.0000    0.0000   -0.0000 C   0  0  2  0  0  4           0  0  0
   -0.5448    0.0000    1.4302 C   0  0  0  0  0  4           0  0  0
   -0.5520   -1.2107   -0.7590 C   0  0  0  0  0  4           0  0  0
  1  2  2  0     0  0
  1  3  2  0     0  0
  1  6  1  0     0  0
  1 19  1  0     0  0
  4 20  2  0     0  0
  5  8  1  0     0  0
  5  9  2  0     0  0
  6 10  1  0     0  0
  7 21  1  0     0  0
  7 22  1  0     0  0
  7 23  1  0     0  0
  8 12  2  0     0  0
  8 24  1  0     0  0
  9 13  1  0     0  0
  9 25  1  0     0  0
 10 14  2  0     0  0
 10 15  1  0     0  0
 11 16  2  0     0  0
 11 17  1  0     0  0
 11 20  1  0     0  0
 12 18  1  0     0  0
 13 18  2  0     0  0
 14 16  1  0     0  0
 15 17  2  0     0  0
 20 26  1  0     0  0
 21 24  1  0     0  0
 22 27  1  0     0  0
 23 28  1  0     0  0
 26 27  1  0     0  0
 26 28  1  0     0  0
M  END
> <standard_type>
pIC50

> <# Confs.>
25

> <canonical_smiles>
Cc1nc(CCN2CCC(C(c3ccc(NS(=O)(C)=O)cc3)=O)CC2)ccc1

> <standard_relation>
=

> <Publication_ID>
nan

> <predicted_activity_value>
nan

> <actual_activity_value>
2.0969100130080562

> <Compound>
E-4031

> <standard_units>
uM

> hash
9353220771499838792

$$$$
19
XXILIB    08252103503D 0   0.00000     0.00000

 28 30  0     1  0            999 V2000
    3.2339    5.3761    3.7164 S   0  0  2  0  0  6           0  0  0
    1.8983    5.7244    3.2723 O   0  0  0  0  0  2           0  0  0
    4.1346    6.3839    4.2433 O   0  0  0  0  0  2           0  0  0
    2.1977   -0.8798   -0.5080 O   0  0  0  0  0  2           0  0  0
   -6.8795   -1.9675   -0.6640 N   0  0  0  0  0  3           0  0  0
    4.0193    4.4801    2.4894 N   0  0  0  0  0  3           0  0  0
   -2.5319   -1.3107    0.7252 N   0  0  2  0  0  3           0  0  0
   -6.1562   -2.6170    0.2821 C   0  0  0  0  0  4           0  0  0
   -8.2281   -1.9485   -0.5283 C   0  0  0  0  0  4           0  0  0
    3.3930    3.3141    1.9260 C   0  0  0  0  0  4           0  0  0
    2.1731    1.1281    0.6600 C   0  0  0  0  0  4           0  0  0
   -6.7422   -3.2460    1.3758 C   0  0  0  0  0  4           0  0  0
   -8.8868   -2.5583    0.5331 C   0  0  0  0  0  4           0  0  0
    2.1550    3.4661    1.2951 C   0  0  0  0  0  4           0  0  0
    4.0383    2.0741    1.8840 C   0  0  0  0  0  4           0  0  0
    1.5403    2.3757    0.6754 C   0  0  0  0  0  4           0  0  0
    3.4265    0.9814    1.2623 C   0  0  0  0  0  4           0  0  0
   -8.1266   -3.2140    1.4943 C   0  0  0  0  0  4           0  0  0
    3.0891    4.1022    4.9447 C   0  0  0  0  0  4           0  0  0
    1.5104    0.0000    0.0000 C   0  0  0  0  0  4           0  0  0
   -3.9895   -1.4203    0.8158 C   0  0  0  0  0  4           0  0  0
   -2.0704   -0.1144    1.4476 C   0  0  0  0  0  4           0  0  0
   -2.0779   -1.2775   -0.6748 C   0  0  0  0  0  4           0  0  0
   -4.6593   -2.6067    0.1230 C   0  0  0  0  0  4           0  0  0
   -9.0138   -1.2350   -1.5857 C   0  0  0  0  0  4           0  0  0
    0.0000    0.0000   -0.0000 C   0  0  2  0  0  4           0  0  0
   -0.5448    0.0000    1.4302 C   0  0  0  0  0  4           0  0  0
   -0.5520   -1.2107   -0.7590 C   0  0  0  0  0  4           0  0  0
  1  2  2  0     0  0
  1  3  2  0     0  0
  1  6  1  0     0  0
  1 19  1  0     0  0
  4 20  2  0     0  0
  5  8  1  0     0  0
  5  9  2  0     0  0
  6 10  1  0     0  0
  7 21  1  0     0  0
  7 22  1  0     0  0
  7 23  1  0     0  0
  8 12  2  0     0  0
  8 24  1  0     0  0
  9 13  1  0     0  0
  9 25  1  0     0  0
 10 14  2  0     0  0
 10 15  1  0     0  0
 11 16  2  0     0  0
 11 17  1  0     0  0
 11 20  1  0     0  0
 12 18  1  0     0  0
 13 18  2  0     0  0
 14 16  1  0     0  0
 15 17  2  0     0  0
 20 26  1  0     0  0
 21 24  1  0     0  0
 22 27  1  0     0  0
 23 28  1  0     0  0
 26 27  1  0     0  0
 26 28  1  0     0  0
M  END
> <standard_type>
pIC50

> <# Confs.>
25

> <canonical_smiles>
Cc1nc(CCN2CCC(C(c3ccc(NS(=O)(C)=O)cc3)=O)CC2)ccc1

> <standard_relation>
=

> <Publication_ID>
nan

> <predicted_activity_value>
nan

> <actual_activity_value>
2.0969100130080562

> <Compound>
E-4031

> <standard_units>
uM

> hash
9353220771499838792

$$$$
19
XXILIB    08252103503D 0   0.00000     0.00000

 28 30  0     1  0            999 V2000
    3.8138    4.5639    4.3035 S   0  0  2  0  0  6           0  0  0
    4.9334    5.2438    4.9251 O   0  0  0  0  0  2           0  0  0
    3.2529    3.3589    4.8847 O   0  0  0  0  0  2           0  0  0
    2.1977   -0.8798   -0.5080 O   0  0  0  0  0  2           0  0  0
   -6.8110   -0.4855    2.2324 N   0  0  0  0  0  3           0  0  0
    4.1615    4.3030    2.6494 N   0  0  0  0  0  3           0  0  0
   -2.5319   -1.3107    0.7252 N   0  0  2  0  0  3           0  0  0
   -6.1113   -1.6465    2.1789 C   0  0  0  0  0  4           0  0  0
   -8.1644   -0.5607    2.2275 C   0  0  0  0  0  4           0  0  0
    3.4902    3.2603    1.9205 C   0  0  0  0  0  4           0  0  0
    2.1731    1.1281    0.6600 C   0  0  0  0  0  4           0  0  0
   -6.7266   -2.8931    2.1302 C   0  0  0  0  0  4           0  0  0
   -8.8514   -1.7680    2.1749 C   0  0  0  0  0  4           0  0  0
    4.0705    1.9889    1.8964 C   0  0  0  0  0  4           0  0  0
    2.2283    3.4507    1.3484 C   0  0  0  0  0  4           0  0  0
    3.4221    0.9292    1.2582 C   0  0  0  0  0  4           0  0  0
    1.5757    2.3912    0.7110 C   0  0  0  0  0  4           0  0  0
   -8.1154   -2.9461    2.1258 C   0  0  0  0  0  4           0  0  0
    2.4890    5.7334    4.1304 C   0  0  0  0  0  4           0  0  0
    1.5104    0.0000    0.0000 C   0  0  0  0  0  4           0  0  0
   -3.9895   -1.4203    0.8158 C   0  0  0  0  0  4           0  0  0
   -2.0704   -0.1144    1.4476 C   0  0  0  0  0  4           0  0  0
   -2.0779   -1.2775   -0.6748 C   0  0  0  0  0  4           0  0  0
   -4.6100   -1.5401    2.2075 C   0  0  0  0  0  4           0  0  0
   -8.9232    0.7301    2.2779 C   0  0  0  0  0  4           0  0  0
    0.0000    0.0000    0.0000 C   0  0  2  0  0  4           0  0  0
   -0.5448    0.0000    1.4302 C   0  0  0  0  0  4           0  0  0
   -0.5520   -1.2107   -0.7590 C   0  0  0  0  0  4           0  0  0
  1  2  2  0     0  0
  1  3  2  0     0  0
  1  6  1  0     0  0
  1 19  1  0     0  0
  4 20  2  0     0  0
  5  8  1  0     0  0
  5  9  2  0     0  0
  6 10  1  0     0  0
  7 21  1  0     0  0
  7 22  1  0     0  0
  7 23  1  0     0  0
  8 12  2  0     0  0
  8 24  1  0     0  0
  9 13  1  0     0  0
  9 25  1  0     0  0
 10 14  2  0     0  0
 10 15  1  0     0  0
 11 16  2  0     0  0
 11 17  1  0     0  0
 11 20  1  0     0  0
 12 18  1  0     0  0
 13 18  2  0     0  0
 14 16  1  0     0  0
 15 17  2  0     0  0
 20 26  1  0     0  0
 21 24  1  0     0  0
 22 27  1  0     0  0
 23 28  1  0     0  0
 26 27  1  0     0  0
 26 28  1  0     0  0
M  END
> <standard_type>
pIC50

> <# Confs.>
25

> <canonical_smiles>
Cc1nc(CCN2CCC(C(c3ccc(NS(=O)(C)=O)cc3)=O)CC2)ccc1

> <standard_relation>
=

> <Publication_ID>
nan

> <predicted_activity_value>
nan

> <actual_activity_value>
2.0969100130080562

> <Compound>
E-4031

> <standard_units>
uM

> hash
9353220771499838792

$$$$
19
XXILIB    08252103503D 0   0.00000     0.00000

 28 30  0     1  0            999 V2000
    5.7493    4.7729    2.2215 S   0  0  2  0  0  6           0  0  0
    6.6002    3.5995    2.1829 O   0  0  0  0  0  2           0  0  0
    6.1334    5.9521    2.9742 O   0  0  0  0  0  2           0  0  0
    2.1977   -0.8798   -0.5080 O   0  0  0  0  0  2           0  0  0
   -6.8795   -1.9675   -0.6640 N   0  0  0  0  0  3           0  0  0
    4.1615    4.3030    2.6494 N   0  0  0  0  0  3           0  0  0
   -2.5319   -1.3107    0.7252 N   0  0  2  0  0  3           0  0  0
   -6.1562   -2.6170    0.2821 C   0  0  0  0  0  4           0  0  0
   -8.2281   -1.9485   -0.5283 C   0  0  0  0  0  4           0  0  0
    3.4902    3.2603    1.9205 C   0  0  0  0  0  4           0  0  0
    2.1731    1.1281    0.6600 C   0  0  0  0  0  4           0  0  0
   -6.7422   -3.2460    1.3758 C   0  0  0  0  0  4           0  0  0
   -8.8868   -2.5583    0.5331 C   0  0  0  0  0  4           0  0  0
    4.0705    1.9889    1.8964 C   0  0  0  0  0  4           0  0  0
    2.2283    3.4507    1.3484 C   0  0  0  0  0  4           0  0  0
    3.4221    0.9292    1.2582 C   0  0  0  0  0  4           0  0  0
    1.5757    2.3912    0.7110 C   0  0  0  0  0  4           0  0  0
   -8.1266   -3.2140    1.4943 C   0  0  0  0  0  4           0  0  0
    5.4483    5.2879    0.5492 C   0  0  0  0  0  4           0  0  0
    1.5104    0.0000    0.0000 C   0  0  0  0  0  4           0  0  0
   -3.9895   -1.4203    0.8158 C   0  0  0  0  0  4           0  0  0
   -2.0704   -0.1144    1.4476 C   0  0  0  0  0  4           0  0  0
   -2.0779   -1.2775   -0.6748 C   0  0  0  0  0  4           0  0  0
   -4.6593   -2.6067    0.1230 C   0  0  0  0  0  4           0  0  0
   -9.0138   -1.2350   -1.5857 C   0  0  0  0  0  4           0  0  0
    0.0000    0.0000   -0.0000 C   0  0  2  0  0  4           0  0  0
   -0.5448    0.0000    1.4302 C   0  0  0  0  0  4           0  0  0
   -0.5520   -1.2107   -0.7590 C   0  0  0  0  0  4           0  0  0
  1  2  2  0     0  0
  1  3  2  0     0  0
  1  6  1  0     0  0
  1 19  1  0     0  0
  4 20  2  0     0  0
  5  8  1  0     0  0
  5  9  2  0     0  0
  6 10  1  0     0  0
  7 21  1  0     0  0
  7 22  1  0     0  0
  7 23  1  0     0  0
  8 12  2  0     0  0
  8 24  1  0     0  0
  9 13  1  0     0  0
  9 25  1  0     0  0
 10 14  2  0     0  0
 10 15  1  0     0  0
 11 16  2  0     0  0
 11 17  1  0     0  0
 11 20  1  0     0  0
 12 18  1  0     0  0
 13 18  2  0     0  0
 14 16  1  0     0  0
 15 17  2  0     0  0
 20 26  1  0     0  0
 21 24  1  0     0  0
 22 27  1  0     0  0
 23 28  1  0     0  0
 26 27  1  0     0  0
 26 28  1  0     0  0
M  END
> <standard_type>
pIC50

> <# Confs.>
25

> <canonical_smiles>
Cc1nc(CCN2CCC(C(c3ccc(NS(=O)(C)=O)cc3)=O)CC2)ccc1

> <standard_relation>
=

> <Publication_ID>
nan

> <predicted_activity_value>
nan

> <actual_activity_value>
2.0969100130080562

> <Compound>
E-4031

> <standard_units>
uM

> hash
9353220771499838792

$$$$
19
XXILIB    08252103503D 0   0.00000     0.00000

 28 30  0     1  0            999 V2000
    3.2339    5.3761    3.7164 S   0  0  2  0  0  6           0  0  0
    1.8983    5.7244    3.2723 O   0  0  0  0  0  2           0  0  0
    4.1346    6.3839    4.2433 O   0  0  0  0  0  2           0  0  0
    2.1977   -0.8798   -0.5080 O   0  0  0  0  0  2           0  0  0
   -6.8110   -0.4855    2.2324 N   0  0  0  0  0  3           0  0  0
    4.0193    4.4801    2.4894 N   0  0  0  0  0  3           0  0  0
   -2.5319   -1.3107    0.7252 N   0  0  2  0  0  3           0  0  0
   -6.1113   -1.6465    2.1789 C   0  0  0  0  0  4           0  0  0
   -8.1644   -0.5607    2.2275 C   0  0  0  0  0  4           0  0  0
    3.3930    3.3141    1.9260 C   0  0  0  0  0  4           0  0  0
    2.1731    1.1281    0.6600 C   0  0  0  0  0  4           0  0  0
   -6.7266   -2.8931    2.1302 C   0  0  0  0  0  4           0  0  0
   -8.8514   -1.7680    2.1749 C   0  0  0  0  0  4           0  0  0
    2.1550    3.4661    1.2951 C   0  0  0  0  0  4           0  0  0
    4.0383    2.0741    1.8840 C   0  0  0  0  0  4           0  0  0
    1.5403    2.3757    0.6754 C   0  0  0  0  0  4           0  0  0
    3.4265    0.9814    1.2623 C   0  0  0  0  0  4           0  0  0
   -8.1154   -2.9461    2.1258 C   0  0  0  0  0  4           0  0  0
    3.0891    4.1022    4.9447 C   0  0  0  0  0  4           0  0  0
    1.5104    0.0000    0.0000 C   0  0  0  0  0  4           0  0  0
   -3.9895   -1.4203    0.8158 C   0  0  0  0  0  4           0  0  0
   -2.0704   -0.1144    1.4476 C   0  0  0  0  0  4           0  0  0
   -2.0779   -1.2775   -0.6748 C   0  0  0  0  0  4           0  0  0
   -4.6100   -1.5401    2.2075 C   0  0  0  0  0  4           0  0  0
   -8.9232    0.7301    2.2779 C   0  0  0  0  0  4           0  0  0
    0.0000    0.0000    0.0000 C   0  0  2  0  0  4           0  0  0
   -0.5448    0.0000    1.4302 C   0  0  0  0  0  4           0  0  0
   -0.5520   -1.2107   -0.7590 C   0  0  0  0  0  4           0  0  0
  1  2  2  0     0  0
  1  3  2  0     0  0
  1  6  1  0     0  0
  1 19  1  0     0  0
  4 20  2  0     0  0
  5  8  1  0     0  0
  5  9  2  0     0  0
  6 10  1  0     0  0
  7 21  1  0     0  0
  7 22  1  0     0  0
  7 23  1  0     0  0
  8 12  2  0     0  0
  8 24  1  0     0  0
  9 13  1  0     0  0
  9 25  1  0     0  0
 10 14  2  0     0  0
 10 15  1  0     0  0
 11 16  2  0     0  0
 11 17  1  0     0  0
 11 20  1  0     0  0
 12 18  1  0     0  0
 13 18  2  0     0  0
 14 16  1  0     0  0
 15 17  2  0     0  0
 20 26  1  0     0  0
 21 24  1  0     0  0
 22 27  1  0     0  0
 23 28  1  0     0  0
 26 27  1  0     0  0
 26 28  1  0     0  0
M  END
> <standard_type>
pIC50

> <# Confs.>
25

> <canonical_smiles>
Cc1nc(CCN2CCC(C(c3ccc(NS(=O)(C)=O)cc3)=O)CC2)ccc1

> <standard_relation>
=

> <Publication_ID>
nan

> <predicted_activity_value>
nan

> <actual_activity_value>
2.0969100130080562

> <Compound>
E-4031

> <standard_units>
uM

> hash
9353220771499838792

$$$$
19
XXILIB    08252103503D 0   0.00000     0.00000

 28 30  0     1  0            999 V2000
    4.0974   -1.2734   -6.1420 S   0  0  2  0  0  6           0  0  0
    4.4595   -0.7960   -7.4624 O   0  0  0  0  0  2           0  0  0
    2.8640   -2.0048   -5.9223 O   0  0  0  0  0  2           0  0  0
    2.1977   -0.0000    1.0159 O   0  0  0  0  0  2           0  0  0
   -6.8795   -1.9675   -0.6640 N   0  0  0  0  0  3           0  0  0
    4.2138    0.0168   -5.0254 N   0  0  0  0  0  3           0  0  0
   -2.5319   -1.3107    0.7252 N   0  0  2  0  0  3           0  0  0
   -6.1562   -2.6170    0.2821 C   0  0  0  0  0  4           0  0  0
   -8.2281   -1.9485   -0.5283 C   0  0  0  0  0  4           0  0  0
    3.4746   -0.0196   -3.7920 C   0  0  0  0  0  4           0  0  0
    2.1731    0.0075   -1.3070 C   0  0  0  0  0  4           0  0  0
   -6.7422   -3.2460    1.3758 C   0  0  0  0  0  4           0  0  0
   -8.8868   -2.5583    0.5331 C   0  0  0  0  0  4           0  0  0
    4.0802   -0.5983   -2.6730 C   0  0  0  0  0  4           0  0  0
    2.2338    0.6105   -3.6531 C   0  0  0  0  0  4           0  0  0
    3.4280   -0.5969   -1.4379 C   0  0  0  0  0  4           0  0  0
    1.5797    0.6155   -2.4175 C   0  0  0  0  0  4           0  0  0
   -8.1266   -3.2140    1.4943 C   0  0  0  0  0  4           0  0  0
    5.4265   -2.2854   -5.5407 C   0  0  0  0  0  4           0  0  0
    1.5104   -0.0000    0.0000 C   0  0  0  0  0  4           0  0  0
   -3.9895   -1.4203    0.8158 C   0  0  0  0  0  4           0  0  0
   -2.0704   -0.1144    1.4476 C   0  0  0  0  0  4           0  0  0
   -2.0779   -1.2775   -0.6748 C   0  0  0  0  0  4           0  0  0
   -4.6593   -2.6067    0.1230 C   0  0  0  0  0  4           0  0  0
   -9.0138   -1.2350   -1.5857 C   0  0  0  0  0  4           0  0  0
    0.0000    0.0000   -0.0000 C   0  0  2  0  0  4           0  0  0
   -0.5448    0.0000    1.4302 C   0  0  0  0  0  4           0  0  0
   -0.5520   -1.2107   -0.7590 C   0  0  0  0  0  4           0  0  0
  1  2  2  0     0  0
  1  3  2  0     0  0
  1  6  1  0     0  0
  1 19  1  0     0  0
  4 20  2  0     0  0
  5  8  1  0     0  0
  5  9  2  0     0  0
  6 10  1  0     0  0
  7 21  1  0     0  0
  7 22  1  0     0  0
  7 23  1  0     0  0
  8 12  2  0     0  0
  8 24  1  0     0  0
  9 13  1  0     0  0
  9 25  1  0     0  0
 10 14  2  0     0  0
 10 15  1  0     0  0
 11 16  2  0     0  0
 11 17  1  0     0  0
 11 20  1  0     0  0
 12 18  1  0     0  0
 13 18  2  0     0  0
 14 16  1  0     0  0
 15 17  2  0     0  0
 20 26  1  0     0  0
 21 24  1  0     0  0
 22 27  1  0     0  0
 23 28  1  0     0  0
 26 27  1  0     0  0
 26 28  1  0     0  0
M  END
> <standard_type>
pIC50

> <# Confs.>
25

> <canonical_smiles>
Cc1nc(CCN2CCC(C(c3ccc(NS(=O)(C)=O)cc3)=O)CC2)ccc1

> <standard_relation>
=

> <Publication_ID>
nan

> <predicted_activity_value>
nan

> <actual_activity_value>
2.0969100130080562

> <Compound>
E-4031

> <standard_units>
uM

> hash
9353220771499838792

$$$$
19
XXILIB    08252103503D 0   0.00000     0.00000

 28 30  0     1  0            999 V2000
    5.7493    4.7729    2.2215 S   0  0  2  0  0  6           0  0  0
    6.6002    3.5995    2.1829 O   0  0  0  0  0  2           0  0  0
    6.1334    5.9521    2.9742 O   0  0  0  0  0  2           0  0  0
    2.1977   -0.8798   -0.5080 O   0  0  0  0  0  2           0  0  0
   -6.8110   -0.4855    2.2324 N   0  0  0  0  0  3           0  0  0
    4.1615    4.3030    2.6494 N   0  0  0  0  0  3           0  0  0
   -2.5319   -1.3107    0.7252 N   0  0  2  0  0  3           0  0  0
   -6.1113   -1.6465    2.1789 C   0  0  0  0  0  4           0  0  0
   -8.1644   -0.5607    2.2275 C   0  0  0  0  0  4           0  0  0
    3.4902    3.2603    1.9205 C   0  0  0  0  0  4           0  0  0
    2.1731    1.1281    0.6600 C   0  0  0  0  0  4           0  0  0
   -6.7266   -2.8931    2.1302 C   0  0  0  0  0  4           0  0  0
   -8.8514   -1.7680    2.1749 C   0  0  0  0  0  4           0  0  0
    4.0705    1.9889    1.8964 C   0  0  0  0  0  4           0  0  0
    2.2283    3.4507    1.3484 C   0  0  0  0  0  4           0  0  0
    3.4221    0.9292    1.2582 C   0  0  0  0  0  4           0  0  0
    1.5757    2.3912    0.7110 C   0  0  0  0  0  4           0  0  0
   -8.1154   -2.9461    2.1258 C   0  0  0  0  0  4           0  0  0
    5.4483    5.2879    0.5492 C   0  0  0  0  0  4           0  0  0
    1.5104    0.0000    0.0000 C   0  0  0  0  0  4           0  0  0
   -3.9895   -1.4203    0.8158 C   0  0  0  0  0  4           0  0  0
   -2.0704   -0.1144    1.4476 C   0  0  0  0  0  4           0  0  0
   -2.0779   -1.2775   -0.6748 C   0  0  0  0  0  4           0  0  0
   -4.6100   -1.5401    2.2075 C   0  0  0  0  0  4           0  0  0
   -8.9232    0.7301    2.2779 C   0  0  0  0  0  4           0  0  0
    0.0000    0.0000    0.0000 C   0  0  2  0  0  4           0  0  0
   -0.5448    0.0000    1.4302 C   0  0  0  0  0  4           0  0  0
   -0.5520   -1.2107   -0.7590 C   0  0  0  0  0  4           0  0  0
  1  2  2  0     0  0
  1  3  2  0     0  0
  1  6  1  0     0  0
  1 19  1  0     0  0
  4 20  2  0     0  0
  5  8  1  0     0  0
  5  9  2  0     0  0
  6 10  1  0     0  0
  7 21  1  0     0  0
  7 22  1  0     0  0
  7 23  1  0     0  0
  8 12  2  0     0  0
  8 24  1  0     0  0
  9 13  1  0     0  0
  9 25  1  0     0  0
 10 14  2  0     0  0
 10 15  1  0     0  0
 11 16  2  0     0  0
 11 17  1  0     0  0
 11 20  1  0     0  0
 12 18  1  0     0  0
 13 18  2  0     0  0
 14 16  1  0     0  0
 15 17  2  0     0  0
 20 26  1  0     0  0
 21 24  1  0     0  0
 22 27  1  0     0  0
 23 28  1  0     0  0
 26 27  1  0     0  0
 26 28  1  0     0  0
M  END
> <standard_type>
pIC50

> <# Confs.>
25

> <canonical_smiles>
Cc1nc(CCN2CCC(C(c3ccc(NS(=O)(C)=O)cc3)=O)CC2)ccc1

> <standard_relation>
=

> <Publication_ID>
nan

> <predicted_activity_value>
nan

> <actual_activity_value>
2.0969100130080562

> <Compound>
E-4031

> <standard_units>
uM

> hash
9353220771499838792

$$$$
19
XXILIB    08252103503D 0   0.00000     0.00000

 28 30  0     1  0            999 V2000
    4.2434    1.5023   -5.9965 S   0  0  2  0  0  6           0  0  0
    3.0225    2.2843   -6.0103 O   0  0  0  0  0  2           0  0  0
    4.9731    1.2315   -7.2207 O   0  0  0  0  0  2           0  0  0
    2.1977    0.0000    1.0159 O   0  0  0  0  0  2           0  0  0
   -6.8795   -1.9675   -0.6640 N   0  0  0  0  0  3           0  0  0
    3.9670    0.0419   -5.1504 N   0  0  0  0  0  3           0  0  0
   -2.5319   -1.3107    0.7252 N   0  0  2  0  0  3           0  0  0
   -6.1562   -2.6170    0.2821 C   0  0  0  0  0  4           0  0  0
   -8.2281   -1.9485   -0.5283 C   0  0  0  0  0  4           0  0  0
    3.4086    0.0636   -3.8249 C   0  0  0  0  0  4           0  0  0
    2.1731    0.0075   -1.3070 C   0  0  0  0  0  4           0  0  0
   -6.7422   -3.2460    1.3758 C   0  0  0  0  0  4           0  0  0
   -8.8868   -2.5583    0.5331 C   0  0  0  0  0  4           0  0  0
    2.1454    0.6348   -3.6470 C   0  0  0  0  0  4           0  0  0
    4.0328   -0.5735   -2.7477 C   0  0  0  0  0  4           0  0  0
    1.5344    0.6190   -2.3911 C   0  0  0  0  0  4           0  0  0
    3.4225   -0.5930   -1.4900 C   0  0  0  0  0  4           0  0  0
   -8.1266   -3.2140    1.4943 C   0  0  0  0  0  4           0  0  0
    5.3753    2.2717   -4.8655 C   0  0  0  0  0  4           0  0  0
    1.5104    0.0000   -0.0000 C   0  0  0  0  0  4           0  0  0
   -3.9895   -1.4203    0.8158 C   0  0  0  0  0  4           0  0  0
   -2.0704   -0.1144    1.4476 C   0  0  0  0  0  4           0  0  0
   -2.0779   -1.2775   -0.6748 C   0  0  0  0  0  4           0  0  0
   -4.6593   -2.6067    0.1230 C   0  0  0  0  0  4           0  0  0
   -9.0138   -1.2350   -1.5857 C   0  0  0  0  0  4           0  0  0
    0.0000    0.0000   -0.0000 C   0  0  2  0  0  4           0  0  0
   -0.5448    0.0000    1.4302 C   0  0  0  0  0  4           0  0  0
   -0.5520   -1.2107   -0.7590 C   0  0  0  0  0  4           0  0  0
  1  2  2  0     0  0
  1  3  2  0     0  0
  1  6  1  0     0  0
  1 19  1  0     0  0
  4 20  2  0     0  0
  5  8  1  0     0  0
  5  9  2  0     0  0
  6 10  1  0     0  0
  7 21  1  0     0  0
  7 22  1  0     0  0
  7 23  1  0     0  0
  8 12  2  0     0  0
  8 24  1  0     0  0
  9 13  1  0     0  0
  9 25  1  0     0  0
 10 14  2  0     0  0
 10 15  1  0     0  0
 11 16  2  0     0  0
 11 17  1  0     0  0
 11 20  1  0     0  0
 12 18  1  0     0  0
 13 18  2  0     0  0
 14 16  1  0     0  0
 15 17  2  0     0  0
 20 26  1  0     0  0
 21 24  1  0     0  0
 22 27  1  0     0  0
 23 28  1  0     0  0
 26 27  1  0     0  0
 26 28  1  0     0  0
M  END
> <standard_type>
pIC50

> <# Confs.>
25

> <canonical_smiles>
Cc1nc(CCN2CCC(C(c3ccc(NS(=O)(C)=O)cc3)=O)CC2)ccc1

> <standard_relation>
=

> <Publication_ID>
nan

> <predicted_activity_value>
nan

> <actual_activity_value>
2.0969100130080562

> <Compound>
E-4031

> <standard_units>
uM

> hash
9353220771499838792

$$$$
19
XXILIB    08252103503D 0   0.00000     0.00000

 28 30  0     1  0            999 V2000
    4.7398   -1.4344   -5.7618 S   0  0  2  0  0  6           0  0  0
    5.4760   -2.2220   -4.7922 O   0  0  0  0  0  2           0  0  0
    5.2949   -1.1490   -7.0713 O   0  0  0  0  0  2           0  0  0
    2.1977   -0.0000    1.0159 O   0  0  0  0  0  2           0  0  0
   -6.8795   -1.9675   -0.6640 N   0  0  0  0  0  3           0  0  0
    4.2138    0.0168   -5.0254 N   0  0  0  0  0  3           0  0  0
   -2.5319   -1.3107    0.7252 N   0  0  2  0  0  3           0  0  0
   -6.1562   -2.6170    0.2821 C   0  0  0  0  0  4           0  0  0
   -8.2281   -1.9485   -0.5283 C   0  0  0  0  0  4           0  0  0
    3.4746   -0.0196   -3.7920 C   0  0  0  0  0  4           0  0  0
    2.1731    0.0075   -1.3070 C   0  0  0  0  0  4           0  0  0
   -6.7422   -3.2460    1.3758 C   0  0  0  0  0  4           0  0  0
   -8.8868   -2.5583    0.5331 C   0  0  0  0  0  4           0  0  0
    4.0802   -0.5983   -2.6730 C   0  0  0  0  0  4           0  0  0
    2.2338    0.6105   -3.6531 C   0  0  0  0  0  4           0  0  0
    3.4280   -0.5969   -1.4379 C   0  0  0  0  0  4           0  0  0
    1.5797    0.6155   -2.4175 C   0  0  0  0  0  4           0  0  0
   -8.1266   -3.2140    1.4943 C   0  0  0  0  0  4           0  0  0
    3.1620   -2.2089   -6.0136 C   0  0  0  0  0  4           0  0  0
    1.5104   -0.0000    0.0000 C   0  0  0  0  0  4           0  0  0
   -3.9895   -1.4203    0.8158 C   0  0  0  0  0  4           0  0  0
   -2.0704   -0.1144    1.4476 C   0  0  0  0  0  4           0  0  0
   -2.0779   -1.2775   -0.6748 C   0  0  0  0  0  4           0  0  0
   -4.6593   -2.6067    0.1230 C   0  0  0  0  0  4           0  0  0
   -9.0138   -1.2350   -1.5857 C   0  0  0  0  0  4           0  0  0
    0.0000    0.0000   -0.0000 C   0  0  2  0  0  4           0  0  0
   -0.5448    0.0000    1.4302 C   0  0  0  0  0  4           0  0  0
   -0.5520   -1.2107   -0.7590 C   0  0  0  0  0  4           0  0  0
  1  2  2  0     0  0
  1  3  2  0     0  0
  1  6  1  0     0  0
  1 19  1  0     0  0
  4 20  2  0     0  0
  5  8  1  0     0  0
  5  9  2  0     0  0
  6 10  1  0     0  0
  7 21  1  0     0  0
  7 22  1  0     0  0
  7 23  1  0     0  0
  8 12  2  0     0  0
  8 24  1  0     0  0
  9 13  1  0     0  0
  9 25  1  0     0  0
 10 14  2  0     0  0
 10 15  1  0     0  0
 11 16  2  0     0  0
 11 17  1  0     0  0
 11 20  1  0     0  0
 12 18  1  0     0  0
 13 18  2  0     0  0
 14 16  1  0     0  0
 15 17  2  0     0  0
 20 26  1  0     0  0
 21 24  1  0     0  0
 22 27  1  0     0  0
 23 28  1  0     0  0
 26 27  1  0     0  0
 26 28  1  0     0  0
M  END
> <standard_type>
pIC50

> <# Confs.>
25

> <canonical_smiles>
Cc1nc(CCN2CCC(C(c3ccc(NS(=O)(C)=O)cc3)=O)CC2)ccc1

> <standard_relation>
=

> <Publication_ID>
nan

> <predicted_activity_value>
nan

> <actual_activity_value>
2.0969100130080562

> <Compound>
E-4031

> <standard_units>
uM

> hash
9353220771499838792

$$$$
19
XXILIB    08252103503D 0   0.00000     0.00000

 28 30  0     1  0            999 V2000
    5.3166    5.2960    1.8717 S   0  0  2  0  0  6           0  0  0
    5.4387    6.5449    2.5982 O   0  0  0  0  0  2           0  0  0
    5.0926    5.2821    0.4385 O   0  0  0  0  0  2           0  0  0
    2.1977   -0.8798   -0.5080 O   0  0  0  0  0  2           0  0  0
   -6.8795   -1.9675   -0.6640 N   0  0  0  0  0  3           0  0  0
    4.1615    4.3030    2.6494 N   0  0  0  0  0  3           0  0  0
   -2.5319   -1.3107    0.7252 N   0  0  2  0  0  3           0  0  0
   -6.1562   -2.6170    0.2821 C   0  0  0  0  0  4           0  0  0
   -8.2281   -1.9485   -0.5283 C   0  0  0  0  0  4           0  0  0
    3.4902    3.2603    1.9205 C   0  0  0  0  0  4           0  0  0
    2.1731    1.1281    0.6600 C   0  0  0  0  0  4           0  0  0
   -6.7422   -3.2460    1.3758 C   0  0  0  0  0  4           0  0  0
   -8.8868   -2.5583    0.5331 C   0  0  0  0  0  4           0  0  0
    4.0705    1.9889    1.8964 C   0  0  0  0  0  4           0  0  0
    2.2283    3.4507    1.3484 C   0  0  0  0  0  4           0  0  0
    3.4221    0.9292    1.2582 C   0  0  0  0  0  4           0  0  0
    1.5757    2.3912    0.7110 C   0  0  0  0  0  4           0  0  0
   -8.1266   -3.2140    1.4943 C   0  0  0  0  0  4           0  0  0
    6.7737    4.3321    2.1885 C   0  0  0  0  0  4           0  0  0
    1.5104    0.0000    0.0000 C   0  0  0  0  0  4           0  0  0
   -3.9895   -1.4203    0.8158 C   0  0  0  0  0  4           0  0  0
   -2.0704   -0.1144    1.4476 C   0  0  0  0  0  4           0  0  0
   -2.0779   -1.2775   -0.6748 C   0  0  0  0  0  4           0  0  0
   -4.6593   -2.6067    0.1230 C   0  0  0  0  0  4           0  0  0
   -9.0138   -1.2350   -1.5857 C   0  0  0  0  0  4           0  0  0
    0.0000    0.0000   -0.0000 C   0  0  2  0  0  4           0  0  0
   -0.5448    0.0000    1.4302 C   0  0  0  0  0  4           0  0  0
   -0.5520   -1.2107   -0.7590 C   0  0  0  0  0  4           0  0  0
  1  2  2  0     0  0
  1  3  2  0     0  0
  1  6  1  0     0  0
  1 19  1  0     0  0
  4 20  2  0     0  0
  5  8  1  0     0  0
  5  9  2  0     0  0
  6 10  1  0     0  0
  7 21  1  0     0  0
  7 22  1  0     0  0
  7 23  1  0     0  0
  8 12  2  0     0  0
  8 24  1  0     0  0
  9 13  1  0     0  0
  9 25  1  0     0  0
 10 14  2  0     0  0
 10 15  1  0     0  0
 11 16  2  0     0  0
 11 17  1  0     0  0
 11 20  1  0     0  0
 12 18  1  0     0  0
 13 18  2  0     0  0
 14 16  1  0     0  0
 15 17  2  0     0  0
 20 26  1  0     0  0
 21 24  1  0     0  0
 22 27  1  0     0  0
 23 28  1  0     0  0
 26 27  1  0     0  0
 26 28  1  0     0  0
M  END
> <standard_type>
pIC50

> <# Confs.>
25

> <canonical_smiles>
Cc1nc(CCN2CCC(C(c3ccc(NS(=O)(C)=O)cc3)=O)CC2)ccc1

> <standard_relation>
=

> <Publication_ID>
nan

> <predicted_activity_value>
nan

> <actual_activity_value>
2.0969100130080562

> <Compound>
E-4031

> <standard_units>
uM

> hash
9353220771499838792

$$$$
19
XXILIB    08252103503D 0   0.00000     0.00000

 28 30  0     1  0            999 V2000
    4.0974   -1.2734   -6.1420 S   0  0  2  0  0  6           0  0  0
    4.4595   -0.7960   -7.4624 O   0  0  0  0  0  2           0  0  0
    2.8640   -2.0048   -5.9223 O   0  0  0  0  0  2           0  0  0
    2.1977   -0.0000    1.0159 O   0  0  0  0  0  2           0  0  0
   -6.8110   -0.4855    2.2324 N   0  0  0  0  0  3           0  0  0
    4.2138    0.0168   -5.0254 N   0  0  0  0  0  3           0  0  0
   -2.5319   -1.3107    0.7252 N   0  0  2  0  0  3           0  0  0
   -6.1113   -1.6465    2.1789 C   0  0  0  0  0  4           0  0  0
   -8.1644   -0.5607    2.2275 C   0  0  0  0  0  4           0  0  0
    3.4746   -0.0196   -3.7920 C   0  0  0  0  0  4           0  0  0
    2.1731    0.0075   -1.3070 C   0  0  0  0  0  4           0  0  0
   -6.7266   -2.8931    2.1302 C   0  0  0  0  0  4           0  0  0
   -8.8514   -1.7680    2.1749 C   0  0  0  0  0  4           0  0  0
    4.0802   -0.5983   -2.6730 C   0  0  0  0  0  4           0  0  0
    2.2338    0.6105   -3.6531 C   0  0  0  0  0  4           0  0  0
    3.4280   -0.5969   -1.4379 C   0  0  0  0  0  4           0  0  0
    1.5797    0.6155   -2.4175 C   0  0  0  0  0  4           0  0  0
   -8.1154   -2.9461    2.1258 C   0  0  0  0  0  4           0  0  0
    5.4265   -2.2854   -5.5407 C   0  0  0  0  0  4           0  0  0
    1.5104   -0.0000    0.0000 C   0  0  0  0  0  4           0  0  0
   -3.9895   -1.4203    0.8158 C   0  0  0  0  0  4           0  0  0
   -2.0704   -0.1144    1.4476 C   0  0  0  0  0  4           0  0  0
   -2.0779   -1.2775   -0.6748 C   0  0  0  0  0  4           0  0  0
   -4.6100   -1.5401    2.2075 C   0  0  0  0  0  4           0  0  0
   -8.9232    0.7301    2.2779 C   0  0  0  0  0  4           0  0  0
    0.0000    0.0000    0.0000 C   0  0  2  0  0  4           0  0  0
   -0.5448    0.0000    1.4302 C   0  0  0  0  0  4           0  0  0
   -0.5520   -1.2107   -0.7590 C   0  0  0  0  0  4           0  0  0
  1  2  2  0     0  0
  1  3  2  0     0  0
  1  6  1  0     0  0
  1 19  1  0     0  0
  4 20  2  0     0  0
  5  8  1  0     0  0
  5  9  2  0     0  0
  6 10  1  0     0  0
  7 21  1  0     0  0
  7 22  1  0     0  0
  7 23  1  0     0  0
  8 12  2  0     0  0
  8 24  1  0     0  0
  9 13  1  0     0  0
  9 25  1  0     0  0
 10 14  2  0     0  0
 10 15  1  0     0  0
 11 16  2  0     0  0
 11 17  1  0     0  0
 11 20  1  0     0  0
 12 18  1  0     0  0
 13 18  2  0     0  0
 14 16  1  0     0  0
 15 17  2  0     0  0
 20 26  1  0     0  0
 21 24  1  0     0  0
 22 27  1  0     0  0
 23 28  1  0     0  0
 26 27  1  0     0  0
 26 28  1  0     0  0
M  END
> <standard_type>
pIC50

> <# Confs.>
25

> <canonical_smiles>
Cc1nc(CCN2CCC(C(c3ccc(NS(=O)(C)=O)cc3)=O)CC2)ccc1

> <standard_relation>
=

> <Publication_ID>
nan

> <predicted_activity_value>
nan

> <actual_activity_value>
2.0969100130080562

> <Compound>
E-4031

> <standard_units>
uM

> hash
9353220771499838792

$$$$
19
XXILIB    08252103503D 0   0.00000     0.00000

 28 30  0     1  0            999 V2000
    3.8138    4.5639    4.3035 S   0  0  2  0  0  6           0  0  0
    4.9334    5.2438    4.9251 O   0  0  0  0  0  2           0  0  0
    3.2529    3.3589    4.8847 O   0  0  0  0  0  2           0  0  0
    2.1977   -0.8798   -0.5080 O   0  0  0  0  0  2           0  0  0
   -6.7696   -1.4133    0.4051 N   0  0  0  0  0  3           0  0  0
    4.1615    4.3030    2.6494 N   0  0  0  0  0  3           0  0  0
   -2.5319   -1.3107    0.7252 N   0  0  2  0  0  3           0  0  0
   -6.1562   -2.6170    0.2821 C   0  0  0  0  0  4           0  0  0
   -8.1152   -1.4019    0.5690 C   0  0  0  0  0  4           0  0  0
    3.4902    3.2603    1.9205 C   0  0  0  0  0  4           0  0  0
    2.1731    1.1281    0.6600 C   0  0  0  0  0  4           0  0  0
   -6.8497   -3.8220    0.3279 C   0  0  0  0  0  4           0  0  0
   -8.8777   -2.5631    0.6192 C   0  0  0  0  0  4           0  0  0
    4.0705    1.9889    1.8964 C   0  0  0  0  0  4           0  0  0
    2.2283    3.4507    1.3484 C   0  0  0  0  0  4           0  0  0
    3.4221    0.9292    1.2582 C   0  0  0  0  0  4           0  0  0
    1.5757    2.3912    0.7110 C   0  0  0  0  0  4           0  0  0
   -8.2287   -3.7861    0.4963 C   0  0  0  0  0  4           0  0  0
    2.4890    5.7334    4.1304 C   0  0  0  0  0  4           0  0  0
    1.5104    0.0000    0.0000 C   0  0  0  0  0  4           0  0  0
   -3.9895   -1.4203    0.8158 C   0  0  0  0  0  4           0  0  0
   -2.0704   -0.1144    1.4476 C   0  0  0  0  0  4           0  0  0
   -2.0779   -1.2775   -0.6748 C   0  0  0  0  0  4           0  0  0
   -4.6593   -2.6067    0.1230 C   0  0  0  0  0  4           0  0  0
   -8.7794   -0.0649    0.6944 C   0  0  0  0  0  4           0  0  0
    0.0000    0.0000   -0.0000 C   0  0  2  0  0  4           0  0  0
   -0.5448    0.0000    1.4302 C   0  0  0  0  0  4           0  0  0
   -0.5520   -1.2107   -0.7590 C   0  0  0  0  0  4           0  0  0
  1  2  2  0     0  0
  1  3  2  0     0  0
  1  6  1  0     0  0
  1 19  1  0     0  0
  4 20  2  0     0  0
  5  8  1  0     0  0
  5  9  2  0     0  0
  6 10  1  0     0  0
  7 21  1  0     0  0
  7 22  1  0     0  0
  7 23  1  0     0  0
  8 12  2  0     0  0
  8 24  1  0     0  0
  9 13  1  0     0  0
  9 25  1  0     0  0
 10 14  2  0     0  0
 10 15  1  0     0  0
 11 16  2  0     0  0
 11 17  1  0     0  0
 11 20  1  0     0  0
 12 18  1  0     0  0
 13 18  2  0     0  0
 14 16  1  0     0  0
 15 17  2  0     0  0
 20 26  1  0     0  0
 21 24  1  0     0  0
 22 27  1  0     0  0
 23 28  1  0     0  0
 26 27  1  0     0  0
 26 28  1  0     0  0
M  END
> <standard_type>
pIC50

> <# Confs.>
25

> <canonical_smiles>
Cc1nc(CCN2CCC(C(c3ccc(NS(=O)(C)=O)cc3)=O)CC2)ccc1

> <standard_relation>
=

> <Publication_ID>
nan

> <predicted_activity_value>
nan

> <actual_activity_value>
2.0969100130080562

> <Compound>
E-4031

> <standard_units>
uM

> hash
9353220771499838792

$$$$
19
XXILIB    08252103503D 0   0.00000     0.00000

 28 30  0     1  0            999 V2000
    5.2192    1.3509   -5.3921 S   0  0  2  0  0  6           0  0  0
    6.2245    0.9410   -6.3532 O   0  0  0  0  0  2           0  0  0
    5.5884    2.0397   -4.1699 O   0  0  0  0  0  2           0  0  0
    2.1977   -0.0000    1.0159 O   0  0  0  0  0  2           0  0  0
   -6.8795   -1.9675   -0.6640 N   0  0  0  0  0  3           0  0  0
    4.2138    0.0168   -5.0254 N   0  0  0  0  0  3           0  0  0
   -2.5319   -1.3107    0.7252 N   0  0  2  0  0  3           0  0  0
   -6.1562   -2.6170    0.2821 C   0  0  0  0  0  4           0  0  0
   -8.2281   -1.9485   -0.5283 C   0  0  0  0  0  4           0  0  0
    3.4746   -0.0196   -3.7920 C   0  0  0  0  0  4           0  0  0
    2.1731    0.0075   -1.3070 C   0  0  0  0  0  4           0  0  0
   -6.7422   -3.2460    1.3758 C   0  0  0  0  0  4           0  0  0
   -8.8868   -2.5583    0.5331 C   0  0  0  0  0  4           0  0  0
    4.0802   -0.5983   -2.6730 C   0  0  0  0  0  4           0  0  0
    2.2338    0.6105   -3.6531 C   0  0  0  0  0  4           0  0  0
    3.4280   -0.5969   -1.4379 C   0  0  0  0  0  4           0  0  0
    1.5797    0.6155   -2.4175 C   0  0  0  0  0  4           0  0  0
   -8.1266   -3.2140    1.4943 C   0  0  0  0  0  4           0  0  0
    4.0358    2.3701   -6.2366 C   0  0  0  0  0  4           0  0  0
    1.5104   -0.0000    0.0000 C   0  0  0  0  0  4           0  0  0
   -3.9895   -1.4203    0.8158 C   0  0  0  0  0  4           0  0  0
   -2.0704   -0.1144    1.4476 C   0  0  0  0  0  4           0  0  0
   -2.0779   -1.2775   -0.6748 C   0  0  0  0  0  4           0  0  0
   -4.6593   -2.6067    0.1230 C   0  0  0  0  0  4           0  0  0
   -9.0138   -1.2350   -1.5857 C   0  0  0  0  0  4           0  0  0
    0.0000    0.0000   -0.0000 C   0  0  2  0  0  4           0  0  0
   -0.5448    0.0000    1.4302 C   0  0  0  0  0  4           0  0  0
   -0.5520   -1.2107   -0.7590 C   0  0  0  0  0  4           0  0  0
  1  2  2  0     0  0
  1  3  2  0     0  0
  1  6  1  0     0  0
  1 19  1  0     0  0
  4 20  2  0     0  0
  5  8  1  0     0  0
  5  9  2  0     0  0
  6 10  1  0     0  0
  7 21  1  0     0  0
  7 22  1  0     0  0
  7 23  1  0     0  0
  8 12  2  0     0  0
  8 24  1  0     0  0
  9 13  1  0     0  0
  9 25  1  0     0  0
 10 14  2  0     0  0
 10 15  1  0     0  0
 11 16  2  0     0  0
 11 17  1  0     0  0
 11 20  1  0     0  0
 12 18  1  0     0  0
 13 18  2  0     0  0
 14 16  1  0     0  0
 15 17  2  0     0  0
 20 26  1  0     0  0
 21 24  1  0     0  0
 22 27  1  0     0  0
 23 28  1  0     0  0
 26 27  1  0     0  0
 26 28  1  0     0  0
M  END
> <standard_type>
pIC50

> <# Confs.>
25

> <canonical_smiles>
Cc1nc(CCN2CCC(C(c3ccc(NS(=O)(C)=O)cc3)=O)CC2)ccc1

> <standard_relation>
=

> <Publication_ID>
nan

> <predicted_activity_value>
nan

> <actual_activity_value>
2.0969100130080562

> <Compound>
E-4031

> <standard_units>
uM

> hash
9353220771499838792

$$$$
19
XXILIB    08252103503D 0   0.00000     0.00000

 28 30  0     1  0            999 V2000
    3.2339    5.3761    3.7164 S   0  0  2  0  0  6           0  0  0
    1.8983    5.7244    3.2723 O   0  0  0  0  0  2           0  0  0
    4.1346    6.3839    4.2433 O   0  0  0  0  0  2           0  0  0
    2.1977   -0.8798   -0.5080 O   0  0  0  0  0  2           0  0  0
   -6.7696   -1.4133    0.4051 N   0  0  0  0  0  3           0  0  0
    4.0193    4.4801    2.4894 N   0  0  0  0  0  3           0  0  0
   -2.5319   -1.3107    0.7252 N   0  0  2  0  0  3           0  0  0
   -6.1562   -2.6170    0.2821 C   0  0  0  0  0  4           0  0  0
   -8.1152   -1.4019    0.5690 C   0  0  0  0  0  4           0  0  0
    3.3930    3.3141    1.9260 C   0  0  0  0  0  4           0  0  0
    2.1731    1.1281    0.6600 C   0  0  0  0  0  4           0  0  0
   -6.8497   -3.8220    0.3279 C   0  0  0  0  0  4           0  0  0
   -8.8777   -2.5631    0.6192 C   0  0  0  0  0  4           0  0  0
    2.1550    3.4661    1.2951 C   0  0  0  0  0  4           0  0  0
    4.0383    2.0741    1.8840 C   0  0  0  0  0  4           0  0  0
    1.5403    2.3757    0.6754 C   0  0  0  0  0  4           0  0  0
    3.4265    0.9814    1.2623 C   0  0  0  0  0  4           0  0  0
   -8.2287   -3.7861    0.4963 C   0  0  0  0  0  4           0  0  0
    3.0891    4.1022    4.9447 C   0  0  0  0  0  4           0  0  0
    1.5104    0.0000    0.0000 C   0  0  0  0  0  4           0  0  0
   -3.9895   -1.4203    0.8158 C   0  0  0  0  0  4           0  0  0
   -2.0704   -0.1144    1.4476 C   0  0  0  0  0  4           0  0  0
   -2.0779   -1.2775   -0.6748 C   0  0  0  0  0  4           0  0  0
   -4.6593   -2.6067    0.1230 C   0  0  0  0  0  4           0  0  0
   -8.7794   -0.0649    0.6944 C   0  0  0  0  0  4           0  0  0
    0.0000    0.0000   -0.0000 C   0  0  2  0  0  4           0  0  0
   -0.5448    0.0000    1.4302 C   0  0  0  0  0  4           0  0  0
   -0.5520   -1.2107   -0.7590 C   0  0  0  0  0  4           0  0  0
  1  2  2  0     0  0
  1  3  2  0     0  0
  1  6  1  0     0  0
  1 19  1  0     0  0
  4 20  2  0     0  0
  5  8  1  0     0  0
  5  9  2  0     0  0
  6 10  1  0     0  0
  7 21  1  0     0  0
  7 22  1  0     0  0
  7 23  1  0     0  0
  8 12  2  0     0  0
  8 24  1  0     0  0
  9 13  1  0     0  0
  9 25  1  0     0  0
 10 14  2  0     0  0
 10 15  1  0     0  0
 11 16  2  0     0  0
 11 17  1  0     0  0
 11 20  1  0     0  0
 12 18  1  0     0  0
 13 18  2  0     0  0
 14 16  1  0     0  0
 15 17  2  0     0  0
 20 26  1  0     0  0
 21 24  1  0     0  0
 22 27  1  0     0  0
 23 28  1  0     0  0
 26 27  1  0     0  0
 26 28  1  0     0  0
M  END
> <standard_type>
pIC50

> <# Confs.>
25

> <canonical_smiles>
Cc1nc(CCN2CCC(C(c3ccc(NS(=O)(C)=O)cc3)=O)CC2)ccc1

> <standard_relation>
=

> <Publication_ID>
nan

> <predicted_activity_value>
nan

> <actual_activity_value>
2.0969100130080562

> <Compound>
E-4031

> <standard_units>
uM

> hash
9353220771499838792

$$$$
19
XXILIB    08252103503D 0   0.00000     0.00000

 28 30  0     1  0            999 V2000
    5.3166    5.2960    1.8717 S   0  0  2  0  0  6           0  0  0
    5.4387    6.5449    2.5982 O   0  0  0  0  0  2           0  0  0
    5.0926    5.2821    0.4385 O   0  0  0  0  0  2           0  0  0
    2.1977   -0.8798   -0.5080 O   0  0  0  0  0  2           0  0  0
   -6.8110   -0.4855    2.2324 N   0  0  0  0  0  3           0  0  0
    4.1615    4.3030    2.6494 N   0  0  0  0  0  3           0  0  0
   -2.5319   -1.3107    0.7252 N   0  0  2  0  0  3           0  0  0
   -6.1113   -1.6465    2.1789 C   0  0  0  0  0  4           0  0  0
   -8.1644   -0.5607    2.2275 C   0  0  0  0  0  4           0  0  0
    3.4902    3.2603    1.9205 C   0  0  0  0  0  4           0  0  0
    2.1731    1.1281    0.6600 C   0  0  0  0  0  4           0  0  0
   -6.7266   -2.8931    2.1302 C   0  0  0  0  0  4           0  0  0
   -8.8514   -1.7680    2.1749 C   0  0  0  0  0  4           0  0  0
    4.0705    1.9889    1.8964 C   0  0  0  0  0  4           0  0  0
    2.2283    3.4507    1.3484 C   0  0  0  0  0  4           0  0  0
    3.4221    0.9292    1.2582 C   0  0  0  0  0  4           0  0  0
    1.5757    2.3912    0.7110 C   0  0  0  0  0  4           0  0  0
   -8.1154   -2.9461    2.1258 C   0  0  0  0  0  4           0  0  0
    6.7737    4.3321    2.1885 C   0  0  0  0  0  4           0  0  0
    1.5104    0.0000    0.0000 C   0  0  0  0  0  4           0  0  0
   -3.9895   -1.4203    0.8158 C   0  0  0  0  0  4           0  0  0
   -2.0704   -0.1144    1.4476 C   0  0  0  0  0  4           0  0  0
   -2.0779   -1.2775   -0.6748 C   0  0  0  0  0  4           0  0  0
   -4.6100   -1.5401    2.2075 C   0  0  0  0  0  4           0  0  0
   -8.9232    0.7301    2.2779 C   0  0  0  0  0  4           0  0  0
    0.0000    0.0000    0.0000 C   0  0  2  0  0  4           0  0  0
   -0.5448    0.0000    1.4302 C   0  0  0  0  0  4           0  0  0
   -0.5520   -1.2107   -0.7590 C   0  0  0  0  0  4           0  0  0
  1  2  2  0     0  0
  1  3  2  0     0  0
  1  6  1  0     0  0
  1 19  1  0     0  0
  4 20  2  0     0  0
  5  8  1  0     0  0
  5  9  2  0     0  0
  6 10  1  0     0  0
  7 21  1  0     0  0
  7 22  1  0     0  0
  7 23  1  0     0  0
  8 12  2  0     0  0
  8 24  1  0     0  0
  9 13  1  0     0  0
  9 25  1  0     0  0
 10 14  2  0     0  0
 10 15  1  0     0  0
 11 16  2  0     0  0
 11 17  1  0     0  0
 11 20  1  0     0  0
 12 18  1  0     0  0
 13 18  2  0     0  0
 14 16  1  0     0  0
 15 17  2  0     0  0
 20 26  1  0     0  0
 21 24  1  0     0  0
 22 27  1  0     0  0
 23 28  1  0     0  0
 26 27  1  0     0  0
 26 28  1  0     0  0
M  END
> <standard_type>
pIC50

> <# Confs.>
25

> <canonical_smiles>
Cc1nc(CCN2CCC(C(c3ccc(NS(=O)(C)=O)cc3)=O)CC2)ccc1

> <standard_relation>
=

> <Publication_ID>
nan

> <predicted_activity_value>
nan

> <actual_activity_value>
2.0969100130080562

> <Compound>
E-4031

> <standard_units>
uM

> hash
9353220771499838792

$$$$
19
XXILIB    08252103503D 0   0.00000     0.00000

 28 30  0     1  0            999 V2000
    4.2434    1.5023   -5.9965 S   0  0  2  0  0  6           0  0  0
    3.0225    2.2843   -6.0103 O   0  0  0  0  0  2           0  0  0
    4.9731    1.2315   -7.2207 O   0  0  0  0  0  2           0  0  0
    2.1977    0.0000    1.0159 O   0  0  0  0  0  2           0  0  0
   -6.8110   -0.4855    2.2324 N   0  0  0  0  0  3           0  0  0
    3.9670    0.0419   -5.1504 N   0  0  0  0  0  3           0  0  0
   -2.5319   -1.3107    0.7252 N   0  0  2  0  0  3           0  0  0
   -6.1113   -1.6465    2.1789 C   0  0  0  0  0  4           0  0  0
   -8.1644   -0.5607    2.2275 C   0  0  0  0  0  4           0  0  0
    3.4086    0.0636   -3.8249 C   0  0  0  0  0  4           0  0  0
    2.1731    0.0075   -1.3070 C   0  0  0  0  0  4           0  0  0
   -6.7266   -2.8931    2.1302 C   0  0  0  0  0  4           0  0  0
   -8.8514   -1.7680    2.1749 C   0  0  0  0  0  4           0  0  0
    2.1454    0.6348   -3.6470 C   0  0  0  0  0  4           0  0  0
    4.0328   -0.5735   -2.7477 C   0  0  0  0  0  4           0  0  0
    1.5344    0.6190   -2.3911 C   0  0  0  0  0  4           0  0  0
    3.4225   -0.5930   -1.4900 C   0  0  0  0  0  4           0  0  0
   -8.1154   -2.9461    2.1258 C   0  0  0  0  0  4           0  0  0
    5.3753    2.2717   -4.8655 C   0  0  0  0  0  4           0  0  0
    1.5104    0.0000   -0.0000 C   0  0  0  0  0  4           0  0  0
   -3.9895   -1.4203    0.8158 C   0  0  0  0  0  4           0  0  0
   -2.0704   -0.1144    1.4476 C   0  0  0  0  0  4           0  0  0
   -2.0779   -1.2775   -0.6748 C   0  0  0  0  0  4           0  0  0
   -4.6100   -1.5401    2.2075 C   0  0  0  0  0  4           0  0  0
   -8.9232    0.7301    2.2779 C   0  0  0  0  0  4           0  0  0
    0.0000    0.0000    0.0000 C   0  0  2  0  0  4           0  0  0
   -0.5448    0.0000    1.4302 C   0  0  0  0  0  4           0  0  0
   -0.5520   -1.2107   -0.7590 C   0  0  0  0  0  4           0  0  0
  1  2  2  0     0  0
  1  3  2  0     0  0
  1  6  1  0     0  0
  1 19  1  0     0  0
  4 20  2  0     0  0
  5  8  1  0     0  0
  5  9  2  0     0  0
  6 10  1  0     0  0
  7 21  1  0     0  0
  7 22  1  0     0  0
  7 23  1  0     0  0
  8 12  2  0     0  0
  8 24  1  0     0  0
  9 13  1  0     0  0
  9 25  1  0     0  0
 10 14  2  0     0  0
 10 15  1  0     0  0
 11 16  2  0     0  0
 11 17  1  0     0  0
 11 20  1  0     0  0
 12 18  1  0     0  0
 13 18  2  0     0  0
 14 16  1  0     0  0
 15 17  2  0     0  0
 20 26  1  0     0  0
 21 24  1  0     0  0
 22 27  1  0     0  0
 23 28  1  0     0  0
 26 27  1  0     0  0
 26 28  1  0     0  0
M  END
> <standard_type>
pIC50

> <# Confs.>
25

> <canonical_smiles>
Cc1nc(CCN2CCC(C(c3ccc(NS(=O)(C)=O)cc3)=O)CC2)ccc1

> <standard_relation>
=

> <Publication_ID>
nan

> <predicted_activity_value>
nan

> <actual_activity_value>
2.0969100130080562

> <Compound>
E-4031

> <standard_units>
uM

> hash
9353220771499838792

$$$$
19
XXILIB    08252103503D 0   0.00000     0.00000

 28 30  0     1  0            999 V2000
    5.7493    4.7729    2.2215 S   0  0  2  0  0  6           0  0  0
    6.6002    3.5995    2.1829 O   0  0  0  0  0  2           0  0  0
    6.1334    5.9521    2.9742 O   0  0  0  0  0  2           0  0  0
    2.1977   -0.8798   -0.5080 O   0  0  0  0  0  2           0  0  0
   -6.7696   -1.4133    0.4051 N   0  0  0  0  0  3           0  0  0
    4.1615    4.3030    2.6494 N   0  0  0  0  0  3           0  0  0
   -2.5319   -1.3107    0.7252 N   0  0  2  0  0  3           0  0  0
   -6.1562   -2.6170    0.2821 C   0  0  0  0  0  4           0  0  0
   -8.1152   -1.4019    0.5690 C   0  0  0  0  0  4           0  0  0
    3.4902    3.2603    1.9205 C   0  0  0  0  0  4           0  0  0
    2.1731    1.1281    0.6600 C   0  0  0  0  0  4           0  0  0
   -6.8497   -3.8220    0.3279 C   0  0  0  0  0  4           0  0  0
   -8.8777   -2.5631    0.6192 C   0  0  0  0  0  4           0  0  0
    4.0705    1.9889    1.8964 C   0  0  0  0  0  4           0  0  0
    2.2283    3.4507    1.3484 C   0  0  0  0  0  4           0  0  0
    3.4221    0.9292    1.2582 C   0  0  0  0  0  4           0  0  0
    1.5757    2.3912    0.7110 C   0  0  0  0  0  4           0  0  0
   -8.2287   -3.7861    0.4963 C   0  0  0  0  0  4           0  0  0
    5.4483    5.2879    0.5492 C   0  0  0  0  0  4           0  0  0
    1.5104    0.0000    0.0000 C   0  0  0  0  0  4           0  0  0
   -3.9895   -1.4203    0.8158 C   0  0  0  0  0  4           0  0  0
   -2.0704   -0.1144    1.4476 C   0  0  0  0  0  4           0  0  0
   -2.0779   -1.2775   -0.6748 C   0  0  0  0  0  4           0  0  0
   -4.6593   -2.6067    0.1230 C   0  0  0  0  0  4           0  0  0
   -8.7794   -0.0649    0.6944 C   0  0  0  0  0  4           0  0  0
    0.0000    0.0000   -0.0000 C   0  0  2  0  0  4           0  0  0
   -0.5448    0.0000    1.4302 C   0  0  0  0  0  4           0  0  0
   -0.5520   -1.2107   -0.7590 C   0  0  0  0  0  4           0  0  0
  1  2  2  0     0  0
  1  3  2  0     0  0
  1  6  1  0     0  0
  1 19  1  0     0  0
  4 20  2  0     0  0
  5  8  1  0     0  0
  5  9  2  0     0  0
  6 10  1  0     0  0
  7 21  1  0     0  0
  7 22  1  0     0  0
  7 23  1  0     0  0
  8 12  2  0     0  0
  8 24  1  0     0  0
  9 13  1  0     0  0
  9 25  1  0     0  0
 10 14  2  0     0  0
 10 15  1  0     0  0
 11 16  2  0     0  0
 11 17  1  0     0  0
 11 20  1  0     0  0
 12 18  1  0     0  0
 13 18  2  0     0  0
 14 16  1  0     0  0
 15 17  2  0     0  0
 20 26  1  0     0  0
 21 24  1  0     0  0
 22 27  1  0     0  0
 23 28  1  0     0  0
 26 27  1  0     0  0
 26 28  1  0     0  0
M  END
> <standard_type>
pIC50

> <# Confs.>
25

> <canonical_smiles>
Cc1nc(CCN2CCC(C(c3ccc(NS(=O)(C)=O)cc3)=O)CC2)ccc1

> <standard_relation>
=

> <Publication_ID>
nan

> <predicted_activity_value>
nan

> <actual_activity_value>
2.0969100130080562

> <Compound>
E-4031

> <standard_units>
uM

> hash
9353220771499838792

$$$$
19
XXILIB    08252103503D 0   0.00000     0.00000

 28 30  0     1  0            999 V2000
    5.8006    5.2138    0.3084 S   0  0  2  0  0  6           0  0  0
    6.2556    4.3759    1.4007 O   0  0  0  0  0  2           0  0  0
    6.1952    6.6069    0.2185 O   0  0  0  0  0  2           0  0  0
    2.1977   -1.0159   -0.0000 O   0  0  0  0  0  2           0  0  0
   -6.8795   -1.9675   -0.6640 N   0  0  0  0  0  3           0  0  0
    4.1012    5.0816    0.1677 N   0  0  0  0  0  3           0  0  0
   -2.5319   -1.3107    0.7252 N   0  0  2  0  0  3           0  0  0
   -6.1562   -2.6170    0.2821 C   0  0  0  0  0  4           0  0  0
   -8.2281   -1.9485   -0.5283 C   0  0  0  0  0  4           0  0  0
    3.4786    3.7894    0.0588 C   0  0  0  0  0  4           0  0  0
    2.1731    1.3070    0.0075 C   0  0  0  0  0  4           0  0  0
   -6.7422   -3.2460    1.3758 C   0  0  0  0  0  4           0  0  0
   -8.8868   -2.5583    0.5331 C   0  0  0  0  0  4           0  0  0
    3.6602    2.8762    1.1013 C   0  0  0  0  0  4           0  0  0
    2.6076    3.4728   -0.9885 C   0  0  0  0  0  4           0  0  0
    3.0210    1.6347    1.0710 C   0  0  0  0  0  4           0  0  0
    1.9646    2.2317   -1.0202 C   0  0  0  0  0  4           0  0  0
   -8.1266   -3.2140    1.4943 C   0  0  0  0  0  4           0  0  0
    6.2697    4.4321   -1.2152 C   0  0  0  0  0  4           0  0  0
    1.5104    0.0000   -0.0000 C   0  0  0  0  0  4           0  0  0
   -3.9895   -1.4203    0.8158 C   0  0  0  0  0  4           0  0  0
   -2.0704   -0.1144    1.4476 C   0  0  0  0  0  4           0  0  0
   -2.0779   -1.2775   -0.6748 C   0  0  0  0  0  4           0  0  0
   -4.6593   -2.6067    0.1230 C   0  0  0  0  0  4           0  0  0
   -9.0138   -1.2350   -1.5857 C   0  0  0  0  0  4           0  0  0
    0.0000    0.0000   -0.0000 C   0  0  2  0  0  4           0  0  0
   -0.5448    0.0000    1.4302 C   0  0  0  0  0  4           0  0  0
   -0.5520   -1.2107   -0.7590 C   0  0  0  0  0  4           0  0  0
  1  2  2  0     0  0
  1  3  2  0     0  0
  1  6  1  0     0  0
  1 19  1  0     0  0
  4 20  2  0     0  0
  5  8  1  0     0  0
  5  9  2  0     0  0
  6 10  1  0     0  0
  7 21  1  0     0  0
  7 22  1  0     0  0
  7 23  1  0     0  0
  8 12  2  0     0  0
  8 24  1  0     0  0
  9 13  1  0     0  0
  9 25  1  0     0  0
 10 14  2  0     0  0
 10 15  1  0     0  0
 11 16  2  0     0  0
 11 17  1  0     0  0
 11 20  1  0     0  0
 12 18  1  0     0  0
 13 18  2  0     0  0
 14 16  1  0     0  0
 15 17  2  0     0  0
 20 26  1  0     0  0
 21 24  1  0     0  0
 22 27  1  0     0  0
 23 28  1  0     0  0
 26 27  1  0     0  0
 26 28  1  0     0  0
M  END
> <standard_type>
pIC50

> <# Confs.>
25

> <canonical_smiles>
Cc1nc(CCN2CCC(C(c3ccc(NS(=O)(C)=O)cc3)=O)CC2)ccc1

> <standard_relation>
=

> <Publication_ID>
nan

> <predicted_activity_value>
nan

> <actual_activity_value>
2.0969100130080562

> <Compound>
E-4031

> <standard_units>
uM

> hash
9353220771499838792

$$$$
19
XXILIB    08252103503D 0   0.00000     0.00000

 28 30  0     1  0            999 V2000
    3.8138    4.5639    4.3035 S   0  0  2  0  0  6           0  0  0
    4.9334    5.2438    4.9251 O   0  0  0  0  0  2           0  0  0
    3.2529    3.3589    4.8847 O   0  0  0  0  0  2           0  0  0
    2.1977   -0.8798   -0.5080 O   0  0  0  0  0  2           0  0  0
   -6.7519   -1.0300    1.1543 N   0  0  0  0  0  3           0  0  0
    4.1615    4.3030    2.6494 N   0  0  0  0  0  3           0  0  0
   -2.5319   -1.3107    0.7252 N   0  0  2  0  0  3           0  0  0
   -6.1113   -1.6465    2.1789 C   0  0  0  0  0  4           0  0  0
   -8.1054   -1.0975    1.1213 C   0  0  0  0  0  4           0  0  0
    3.4902    3.2603    1.9205 C   0  0  0  0  0  4           0  0  0
    2.1731    1.1281    0.6600 C   0  0  0  0  0  4           0  0  0
   -6.7869   -2.3266    3.1870 C   0  0  0  0  0  4           0  0  0
   -8.8501   -1.7625    2.0884 C   0  0  0  0  0  4           0  0  0
    4.0705    1.9889    1.8964 C   0  0  0  0  0  4           0  0  0
    2.2283    3.4507    1.3484 C   0  0  0  0  0  4           0  0  0
    3.4221    0.9292    1.2582 C   0  0  0  0  0  4           0  0  0
    1.5757    2.3912    0.7110 C   0  0  0  0  0  4           0  0  0
   -8.1744   -2.3831    3.1325 C   0  0  0  0  0  4           0  0  0
    2.4890    5.7334    4.1304 C   0  0  0  0  0  4           0  0  0
    1.5104    0.0000    0.0000 C   0  0  0  0  0  4           0  0  0
   -3.9895   -1.4203    0.8158 C   0  0  0  0  0  4           0  0  0
   -2.0704   -0.1144    1.4476 C   0  0  0  0  0  4           0  0  0
   -2.0779   -1.2775   -0.6748 C   0  0  0  0  0  4           0  0  0
   -4.6100   -1.5401    2.2075 C   0  0  0  0  0  4           0  0  0
   -8.7981   -0.4195   -0.0211 C   0  0  0  0  0  4           0  0  0
    0.0000    0.0000    0.0000 C   0  0  2  0  0  4           0  0  0
   -0.5448    0.0000    1.4302 C   0  0  0  0  0  4           0  0  0
   -0.5520   -1.2107   -0.7590 C   0  0  0  0  0  4           0  0  0
  1  2  2  0     0  0
  1  3  2  0     0  0
  1  6  1  0     0  0
  1 19  1  0     0  0
  4 20  2  0     0  0
  5  8  1  0     0  0
  5  9  2  0     0  0
  6 10  1  0     0  0
  7 21  1  0     0  0
  7 22  1  0     0  0
  7 23  1  0     0  0
  8 12  2  0     0  0
  8 24  1  0     0  0
  9 13  1  0     0  0
  9 25  1  0     0  0
 10 14  2  0     0  0
 10 15  1  0     0  0
 11 16  2  0     0  0
 11 17  1  0     0  0
 11 20  1  0     0  0
 12 18  1  0     0  0
 13 18  2  0     0  0
 14 16  1  0     0  0
 15 17  2  0     0  0
 20 26  1  0     0  0
 21 24  1  0     0  0
 22 27  1  0     0  0
 23 28  1  0     0  0
 26 27  1  0     0  0
 26 28  1  0     0  0
M  END
> <standard_type>
pIC50

> <# Confs.>
25

> <canonical_smiles>
Cc1nc(CCN2CCC(C(c3ccc(NS(=O)(C)=O)cc3)=O)CC2)ccc1

> <standard_relation>
=

> <Publication_ID>
nan

> <predicted_activity_value>
nan

> <actual_activity_value>
2.0969100130080562

> <Compound>
E-4031

> <standard_units>
uM

> hash
9353220771499838792

$$$$
19
XXILIB    08252103503D 0   0.00000     0.00000

 28 30  0     1  0            999 V2000
    4.7398   -1.4344   -5.7618 S   0  0  2  0  0  6           0  0  0
    5.4760   -2.2220   -4.7922 O   0  0  0  0  0  2           0  0  0
    5.2949   -1.1490   -7.0713 O   0  0  0  0  0  2           0  0  0
    2.1977   -0.0000    1.0159 O   0  0  0  0  0  2           0  0  0
   -6.8110   -0.4855    2.2324 N   0  0  0  0  0  3           0  0  0
    4.2138    0.0168   -5.0254 N   0  0  0  0  0  3           0  0  0
   -2.5319   -1.3107    0.7252 N   0  0  2  0  0  3           0  0  0
   -6.1113   -1.6465    2.1789 C   0  0  0  0  0  4           0  0  0
   -8.1644   -0.5607    2.2275 C   0  0  0  0  0  4           0  0  0
    3.4746   -0.0196   -3.7920 C   0  0  0  0  0  4           0  0  0
    2.1731    0.0075   -1.3070 C   0  0  0  0  0  4           0  0  0
   -6.7266   -2.8931    2.1302 C   0  0  0  0  0  4           0  0  0
   -8.8514   -1.7680    2.1749 C   0  0  0  0  0  4           0  0  0
    4.0802   -0.5983   -2.6730 C   0  0  0  0  0  4           0  0  0
    2.2338    0.6105   -3.6531 C   0  0  0  0  0  4           0  0  0
    3.4280   -0.5969   -1.4379 C   0  0  0  0  0  4           0  0  0
    1.5797    0.6155   -2.4175 C   0  0  0  0  0  4           0  0  0
   -8.1154   -2.9461    2.1258 C   0  0  0  0  0  4           0  0  0
    3.1620   -2.2089   -6.0136 C   0  0  0  0  0  4           0  0  0
    1.5104   -0.0000    0.0000 C   0  0  0  0  0  4           0  0  0
   -3.9895   -1.4203    0.8158 C   0  0  0  0  0  4           0  0  0
   -2.0704   -0.1144    1.4476 C   0  0  0  0  0  4           0  0  0
   -2.0779   -1.2775   -0.6748 C   0  0  0  0  0  4           0  0  0
   -4.6100   -1.5401    2.2075 C   0  0  0  0  0  4           0  0  0
   -8.9232    0.7301    2.2779 C   0  0  0  0  0  4           0  0  0
    0.0000    0.0000    0.0000 C   0  0  2  0  0  4           0  0  0
   -0.5448    0.0000    1.4302 C   0  0  0  0  0  4           0  0  0
   -0.5520   -1.2107   -0.7590 C   0  0  0  0  0  4           0  0  0
  1  2  2  0     0  0
  1  3  2  0     0  0
  1  6  1  0     0  0
  1 19  1  0     0  0
  4 20  2  0     0  0
  5  8  1  0     0  0
  5  9  2  0     0  0
  6 10  1  0     0  0
  7 21  1  0     0  0
  7 22  1  0     0  0
  7 23  1  0     0  0
  8 12  2  0     0  0
  8 24  1  0     0  0
  9 13  1  0     0  0
  9 25  1  0     0  0
 10 14  2  0     0  0
 10 15  1  0     0  0
 11 16  2  0     0  0
 11 17  1  0     0  0
 11 20  1  0     0  0
 12 18  1  0     0  0
 13 18  2  0     0  0
 14 16  1  0     0  0
 15 17  2  0     0  0
 20 26  1  0     0  0
 21 24  1  0     0  0
 22 27  1  0     0  0
 23 28  1  0     0  0
 26 27  1  0     0  0
 26 28  1  0     0  0
M  END
> <standard_type>
pIC50

> <# Confs.>
25

> <canonical_smiles>
Cc1nc(CCN2CCC(C(c3ccc(NS(=O)(C)=O)cc3)=O)CC2)ccc1

> <standard_relation>
=

> <Publication_ID>
nan

> <predicted_activity_value>
nan

> <actual_activity_value>
2.0969100130080562

> <Compound>
E-4031

> <standard_units>
uM

> hash
9353220771499838792

$$$$
19
XXILIB    08252103503D 0   0.00000     0.00000

 28 30  0     1  0            999 V2000
    3.2339    5.3761    3.7164 S   0  0  2  0  0  6           0  0  0
    1.8983    5.7244    3.2723 O   0  0  0  0  0  2           0  0  0
    4.1346    6.3839    4.2433 O   0  0  0  0  0  2           0  0  0
    2.1977   -0.8798   -0.5080 O   0  0  0  0  0  2           0  0  0
   -6.7519   -1.0300    1.1543 N   0  0  0  0  0  3           0  0  0
    4.0193    4.4801    2.4894 N   0  0  0  0  0  3           0  0  0
   -2.5319   -1.3107    0.7252 N   0  0  2  0  0  3           0  0  0
   -6.1113   -1.6465    2.1789 C   0  0  0  0  0  4           0  0  0
   -8.1054   -1.0975    1.1213 C   0  0  0  0  0  4           0  0  0
    3.3930    3.3141    1.9260 C   0  0  0  0  0  4           0  0  0
    2.1731    1.1281    0.6600 C   0  0  0  0  0  4           0  0  0
   -6.7869   -2.3266    3.1870 C   0  0  0  0  0  4           0  0  0
   -8.8501   -1.7625    2.0884 C   0  0  0  0  0  4           0  0  0
    2.1550    3.4661    1.2951 C   0  0  0  0  0  4           0  0  0
    4.0383    2.0741    1.8840 C   0  0  0  0  0  4           0  0  0
    1.5403    2.3757    0.6754 C   0  0  0  0  0  4           0  0  0
    3.4265    0.9814    1.2623 C   0  0  0  0  0  4           0  0  0
   -8.1744   -2.3831    3.1325 C   0  0  0  0  0  4           0  0  0
    3.0891    4.1022    4.9447 C   0  0  0  0  0  4           0  0  0
    1.5104    0.0000    0.0000 C   0  0  0  0  0  4           0  0  0
   -3.9895   -1.4203    0.8158 C   0  0  0  0  0  4           0  0  0
   -2.0704   -0.1144    1.4476 C   0  0  0  0  0  4           0  0  0
   -2.0779   -1.2775   -0.6748 C   0  0  0  0  0  4           0  0  0
   -4.6100   -1.5401    2.2075 C   0  0  0  0  0  4           0  0  0
   -8.7981   -0.4195   -0.0211 C   0  0  0  0  0  4           0  0  0
    0.0000    0.0000    0.0000 C   0  0  2  0  0  4           0  0  0
   -0.5448    0.0000    1.4302 C   0  0  0  0  0  4           0  0  0
   -0.5520   -1.2107   -0.7590 C   0  0  0  0  0  4           0  0  0
  1  2  2  0     0  0
  1  3  2  0     0  0
  1  6  1  0     0  0
  1 19  1  0     0  0
  4 20  2  0     0  0
  5  8  1  0     0  0
  5  9  2  0     0  0
  6 10  1  0     0  0
  7 21  1  0     0  0
  7 22  1  0     0  0
  7 23  1  0     0  0
  8 12  2  0     0  0
  8 24  1  0     0  0
  9 13  1  0     0  0
  9 25  1  0     0  0
 10 14  2  0     0  0
 10 15  1  0     0  0
 11 16  2  0     0  0
 11 17  1  0     0  0
 11 20  1  0     0  0
 12 18  1  0     0  0
 13 18  2  0     0  0
 14 16  1  0     0  0
 15 17  2  0     0  0
 20 26  1  0     0  0
 21 24  1  0     0  0
 22 27  1  0     0  0
 23 28  1  0     0  0
 26 27  1  0     0  0
 26 28  1  0     0  0
M  END
> <standard_type>
pIC50

> <# Confs.>
25

> <canonical_smiles>
Cc1nc(CCN2CCC(C(c3ccc(NS(=O)(C)=O)cc3)=O)CC2)ccc1

> <standard_relation>
=

> <Publication_ID>
nan

> <predicted_activity_value>
nan

> <actual_activity_value>
2.0969100130080562

> <Compound>
E-4031

> <standard_units>
uM

> hash
9353220771499838792

$$$$
19
XXILIB    08252103503D 0   0.00000     0.00000

 28 30  0     1  0            999 V2000
    4.0974   -1.2734   -6.1420 S   0  0  2  0  0  6           0  0  0
    4.4595   -0.7960   -7.4624 O   0  0  0  0  0  2           0  0  0
    2.8640   -2.0048   -5.9223 O   0  0  0  0  0  2           0  0  0
    2.1977   -0.0000    1.0159 O   0  0  0  0  0  2           0  0  0
   -6.7696   -1.4133    0.4051 N   0  0  0  0  0  3           0  0  0
    4.2138    0.0168   -5.0254 N   0  0  0  0  0  3           0  0  0
   -2.5319   -1.3107    0.7252 N   0  0  2  0  0  3           0  0  0
   -6.1562   -2.6170    0.2821 C   0  0  0  0  0  4           0  0  0
   -8.1152   -1.4019    0.5690 C   0  0  0  0  0  4           0  0  0
    3.4746   -0.0196   -3.7920 C   0  0  0  0  0  4           0  0  0
    2.1731    0.0075   -1.3070 C   0  0  0  0  0  4           0  0  0
   -6.8497   -3.8220    0.3279 C   0  0  0  0  0  4           0  0  0
   -8.8777   -2.5631    0.6192 C   0  0  0  0  0  4           0  0  0
    4.0802   -0.5983   -2.6730 C   0  0  0  0  0  4           0  0  0
    2.2338    0.6105   -3.6531 C   0  0  0  0  0  4           0  0  0
    3.4280   -0.5969   -1.4379 C   0  0  0  0  0  4           0  0  0
    1.5797    0.6155   -2.4175 C   0  0  0  0  0  4           0  0  0
   -8.2287   -3.7861    0.4963 C   0  0  0  0  0  4           0  0  0
    5.4265   -2.2854   -5.5407 C   0  0  0  0  0  4           0  0  0
    1.5104   -0.0000    0.0000 C   0  0  0  0  0  4           0  0  0
   -3.9895   -1.4203    0.8158 C   0  0  0  0  0  4           0  0  0
   -2.0704   -0.1144    1.4476 C   0  0  0  0  0  4           0  0  0
   -2.0779   -1.2775   -0.6748 C   0  0  0  0  0  4           0  0  0
   -4.6593   -2.6067    0.1230 C   0  0  0  0  0  4           0  0  0
   -8.7794   -0.0649    0.6944 C   0  0  0  0  0  4           0  0  0
    0.0000    0.0000   -0.0000 C   0  0  2  0  0  4           0  0  0
   -0.5448    0.0000    1.4302 C   0  0  0  0  0  4           0  0  0
   -0.5520   -1.2107   -0.7590 C   0  0  0  0  0  4           0  0  0
  1  2  2  0     0  0
  1  3  2  0     0  0
  1  6  1  0     0  0
  1 19  1  0     0  0
  4 20  2  0     0  0
  5  8  1  0     0  0
  5  9  2  0     0  0
  6 10  1  0     0  0
  7 21  1  0     0  0
  7 22  1  0     0  0
  7 23  1  0     0  0
  8 12  2  0     0  0
  8 24  1  0     0  0
  9 13  1  0     0  0
  9 25  1  0     0  0
 10 14  2  0     0  0
 10 15  1  0     0  0
 11 16  2  0     0  0
 11 17  1  0     0  0
 11 20  1  0     0  0
 12 18  1  0     0  0
 13 18  2  0     0  0
 14 16  1  0     0  0
 15 17  2  0     0  0
 20 26  1  0     0  0
 21 24  1  0     0  0
 22 27  1  0     0  0
 23 28  1  0     0  0
 26 27  1  0     0  0
 26 28  1  0     0  0
M  END
> <standard_type>
pIC50

> <# Confs.>
25

> <canonical_smiles>
Cc1nc(CCN2CCC(C(c3ccc(NS(=O)(C)=O)cc3)=O)CC2)ccc1

> <standard_relation>
=

> <Publication_ID>
nan

> <predicted_activity_value>
nan

> <actual_activity_value>
2.0969100130080562

> <Compound>
E-4031

> <standard_units>
uM

> hash
9353220771499838792

$$$$
19
XXILIB    08252103503D 0   0.00000     0.00000

 28 30  0     1  0            999 V2000
    3.2339    5.3761    3.7164 S   0  0  2  0  0  6           0  0  0
    1.8983    5.7244    3.2723 O   0  0  0  0  0  2           0  0  0
    4.1346    6.3839    4.2433 O   0  0  0  0  0  2           0  0  0
    2.1977   -0.8798   -0.5080 O   0  0  0  0  0  2           0  0  0
   -6.6577   -2.0670    1.4163 N   0  0  0  0  0  3           0  0  0
    4.0193    4.4801    2.4894 N   0  0  0  0  0  3           0  0  0
   -2.5319   -1.3107    0.7252 N   0  0  2  0  0  3           0  0  0
   -6.1562   -2.6170    0.2821 C   0  0  0  0  0  4           0  0  0
   -8.0022   -2.0839    1.5876 C   0  0  0  0  0  4           0  0  0
    3.3930    3.3141    1.9260 C   0  0  0  0  0  4           0  0  0
    2.1731    1.1281    0.6600 C   0  0  0  0  0  4           0  0  0
   -6.9623   -3.1978   -0.6915 C   0  0  0  0  0  4           0  0  0
   -8.8730   -2.6405    0.6580 C   0  0  0  0  0  4           0  0  0
    2.1550    3.4661    1.2951 C   0  0  0  0  0  4           0  0  0
    4.0383    2.0741    1.8840 C   0  0  0  0  0  4           0  0  0
    1.5403    2.3757    0.6754 C   0  0  0  0  0  4           0  0  0
    3.4265    0.9814    1.2623 C   0  0  0  0  0  4           0  0  0
   -8.3381   -3.2034   -0.4948 C   0  0  0  0  0  4           0  0  0
    3.0891    4.1022    4.9447 C   0  0  0  0  0  4           0  0  0
    1.5104    0.0000    0.0000 C   0  0  0  0  0  4           0  0  0
   -3.9895   -1.4203    0.8158 C   0  0  0  0  0  4           0  0  0
   -2.0704   -0.1144    1.4476 C   0  0  0  0  0  4           0  0  0
   -2.0779   -1.2775   -0.6748 C   0  0  0  0  0  4           0  0  0
   -4.6593   -2.6067    0.1230 C   0  0  0  0  0  4           0  0  0
   -8.5416   -1.4648    2.8407 C   0  0  0  0  0  4           0  0  0
    0.0000    0.0000   -0.0000 C   0  0  2  0  0  4           0  0  0
   -0.5448    0.0000    1.4302 C   0  0  0  0  0  4           0  0  0
   -0.5520   -1.2107   -0.7590 C   0  0  0  0  0  4           0  0  0
  1  2  2  0     0  0
  1  3  2  0     0  0
  1  6  1  0     0  0
  1 19  1  0     0  0
  4 20  2  0     0  0
  5  8  1  0     0  0
  5  9  2  0     0  0
  6 10  1  0     0  0
  7 21  1  0     0  0
  7 22  1  0     0  0
  7 23  1  0     0  0
  8 12  2  0     0  0
  8 24  1  0     0  0
  9 13  1  0     0  0
  9 25  1  0     0  0
 10 14  2  0     0  0
 10 15  1  0     0  0
 11 16  2  0     0  0
 11 17  1  0     0  0
 11 20  1  0     0  0
 12 18  1  0     0  0
 13 18  2  0     0  0
 14 16  1  0     0  0
 15 17  2  0     0  0
 20 26  1  0     0  0
 21 24  1  0     0  0
 22 27  1  0     0  0
 23 28  1  0     0  0
 26 27  1  0     0  0
 26 28  1  0     0  0
M  END
> <standard_type>
pIC50

> <# Confs.>
25

> <canonical_smiles>
Cc1nc(CCN2CCC(C(c3ccc(NS(=O)(C)=O)cc3)=O)CC2)ccc1

> <standard_relation>
=

> <Publication_ID>
nan

> <predicted_activity_value>
nan

> <actual_activity_value>
2.0969100130080562

> <Compound>
E-4031

> <standard_units>
uM

> hash
9353220771499838792

$$$$
19
XXILIB    08252103503D 0   0.00000     0.00000

 28 30  0     1  0            999 V2000
    5.3166    5.2960    1.8717 S   0  0  2  0  0  6           0  0  0
    5.4387    6.5449    2.5982 O   0  0  0  0  0  2           0  0  0
    5.0926    5.2821    0.4385 O   0  0  0  0  0  2           0  0  0
    2.1977   -0.8798   -0.5080 O   0  0  0  0  0  2           0  0  0
   -6.7696   -1.4133    0.4051 N   0  0  0  0  0  3           0  0  0
    4.1615    4.3030    2.6494 N   0  0  0  0  0  3           0  0  0
   -2.5319   -1.3107    0.7252 N   0  0  2  0  0  3           0  0  0
   -6.1562   -2.6170    0.2821 C   0  0  0  0  0  4           0  0  0
   -8.1152   -1.4019    0.5690 C   0  0  0  0  0  4           0  0  0
    3.4902    3.2603    1.9205 C   0  0  0  0  0  4           0  0  0
    2.1731    1.1281    0.6600 C   0  0  0  0  0  4           0  0  0
   -6.8497   -3.8220    0.3279 C   0  0  0  0  0  4           0  0  0
   -8.8777   -2.5631    0.6192 C   0  0  0  0  0  4           0  0  0
    4.0705    1.9889    1.8964 C   0  0  0  0  0  4           0  0  0
    2.2283    3.4507    1.3484 C   0  0  0  0  0  4           0  0  0
    3.4221    0.9292    1.2582 C   0  0  0  0  0  4           0  0  0
    1.5757    2.3912    0.7110 C   0  0  0  0  0  4           0  0  0
   -8.2287   -3.7861    0.4963 C   0  0  0  0  0  4           0  0  0
    6.7737    4.3321    2.1885 C   0  0  0  0  0  4           0  0  0
    1.5104    0.0000    0.0000 C   0  0  0  0  0  4           0  0  0
   -3.9895   -1.4203    0.8158 C   0  0  0  0  0  4           0  0  0
   -2.0704   -0.1144    1.4476 C   0  0  0  0  0  4           0  0  0
   -2.0779   -1.2775   -0.6748 C   0  0  0  0  0  4           0  0  0
   -4.6593   -2.6067    0.1230 C   0  0  0  0  0  4           0  0  0
   -8.7794   -0.0649    0.6944 C   0  0  0  0  0  4           0  0  0
    0.0000    0.0000   -0.0000 C   0  0  2  0  0  4           0  0  0
   -0.5448    0.0000    1.4302 C   0  0  0  0  0  4           0  0  0
   -0.5520   -1.2107   -0.7590 C   0  0  0  0  0  4           0  0  0
  1  2  2  0     0  0
  1  3  2  0     0  0
  1  6  1  0     0  0
  1 19  1  0     0  0
  4 20  2  0     0  0
  5  8  1  0     0  0
  5  9  2  0     0  0
  6 10  1  0     0  0
  7 21  1  0     0  0
  7 22  1  0     0  0
  7 23  1  0     0  0
  8 12  2  0     0  0
  8 24  1  0     0  0
  9 13  1  0     0  0
  9 25  1  0     0  0
 10 14  2  0     0  0
 10 15  1  0     0  0
 11 16  2  0     0  0
 11 17  1  0     0  0
 11 20  1  0     0  0
 12 18  1  0     0  0
 13 18  2  0     0  0
 14 16  1  0     0  0
 15 17  2  0     0  0
 20 26  1  0     0  0
 21 24  1  0     0  0
 22 27  1  0     0  0
 23 28  1  0     0  0
 26 27  1  0     0  0
 26 28  1  0     0  0
M  END
> <standard_type>
pIC50

> <# Confs.>
25

> <canonical_smiles>
Cc1nc(CCN2CCC(C(c3ccc(NS(=O)(C)=O)cc3)=O)CC2)ccc1

> <standard_relation>
=

> <Publication_ID>
nan

> <predicted_activity_value>
nan

> <actual_activity_value>
2.0969100130080562

> <Compound>
E-4031

> <standard_units>
uM

> hash
9353220771499838792

$$$$
19
XXILIB    08252103503D 0   0.00000     0.00000

 28 30  0     1  0            999 V2000
    5.7493    4.7729    2.2215 S   0  0  2  0  0  6           0  0  0
    6.6002    3.5995    2.1829 O   0  0  0  0  0  2           0  0  0
    6.1334    5.9521    2.9742 O   0  0  0  0  0  2           0  0  0
    2.1977   -0.8798   -0.5080 O   0  0  0  0  0  2           0  0  0
   -6.7519   -1.0300    1.1543 N   0  0  0  0  0  3           0  0  0
    4.1615    4.3030    2.6494 N   0  0  0  0  0  3           0  0  0
   -2.5319   -1.3107    0.7252 N   0  0  2  0  0  3           0  0  0
   -6.1113   -1.6465    2.1789 C   0  0  0  0  0  4           0  0  0
   -8.1054   -1.0975    1.1213 C   0  0  0  0  0  4           0  0  0
    3.4902    3.2603    1.9205 C   0  0  0  0  0  4           0  0  0
    2.1731    1.1281    0.6600 C   0  0  0  0  0  4           0  0  0
   -6.7869   -2.3266    3.1870 C   0  0  0  0  0  4           0  0  0
   -8.8501   -1.7625    2.0884 C   0  0  0  0  0  4           0  0  0
    4.0705    1.9889    1.8964 C   0  0  0  0  0  4           0  0  0
    2.2283    3.4507    1.3484 C   0  0  0  0  0  4           0  0  0
    3.4221    0.9292    1.2582 C   0  0  0  0  0  4           0  0  0
    1.5757    2.3912    0.7110 C   0  0  0  0  0  4           0  0  0
   -8.1744   -2.3831    3.1325 C   0  0  0  0  0  4           0  0  0
    5.4483    5.2879    0.5492 C   0  0  0  0  0  4           0  0  0
    1.5104    0.0000    0.0000 C   0  0  0  0  0  4           0  0  0
   -3.9895   -1.4203    0.8158 C   0  0  0  0  0  4           0  0  0
   -2.0704   -0.1144    1.4476 C   0  0  0  0  0  4           0  0  0
   -2.0779   -1.2775   -0.6748 C   0  0  0  0  0  4           0  0  0
   -4.6100   -1.5401    2.2075 C   0  0  0  0  0  4           0  0  0
   -8.7981   -0.4195   -0.0211 C   0  0  0  0  0  4           0  0  0
    0.0000    0.0000    0.0000 C   0  0  2  0  0  4           0  0  0
   -0.5448    0.0000    1.4302 C   0  0  0  0  0  4           0  0  0
   -0.5520   -1.2107   -0.7590 C   0  0  0  0  0  4           0  0  0
  1  2  2  0     0  0
  1  3  2  0     0  0
  1  6  1  0     0  0
  1 19  1  0     0  0
  4 20  2  0     0  0
  5  8  1  0     0  0
  5  9  2  0     0  0
  6 10  1  0     0  0
  7 21  1  0     0  0
  7 22  1  0     0  0
  7 23  1  0     0  0
  8 12  2  0     0  0
  8 24  1  0     0  0
  9 13  1  0     0  0
  9 25  1  0     0  0
 10 14  2  0     0  0
 10 15  1  0     0  0
 11 16  2  0     0  0
 11 17  1  0     0  0
 11 20  1  0     0  0
 12 18  1  0     0  0
 13 18  2  0     0  0
 14 16  1  0     0  0
 15 17  2  0     0  0
 20 26  1  0     0  0
 21 24  1  0     0  0
 22 27  1  0     0  0
 23 28  1  0     0  0
 26 27  1  0     0  0
 26 28  1  0     0  0
M  END
> <standard_type>
pIC50

> <# Confs.>
25

> <canonical_smiles>
Cc1nc(CCN2CCC(C(c3ccc(NS(=O)(C)=O)cc3)=O)CC2)ccc1

> <standard_relation>
=

> <Publication_ID>
nan

> <predicted_activity_value>
nan

> <actual_activity_value>
2.0969100130080562

> <Compound>
E-4031

> <standard_units>
uM

> hash
9353220771499838792

$$$$
35
XXILIB    08252103503D 0   0.00000     0.00000

 22 25  0     1  0            999 V2000
   -0.0324   -1.6434   -4.9176 Cl  0  0  0  0  0  1           0  0  0
   -2.5315    1.4935   -0.5593 N   0  0  0  0  0  3           0  0  0
   -0.6146    0.0000    1.1532 N   0  0  0  0  0  3           0  0  0
    1.3824    0.0000   -0.0000 N   0  0  2  0  0  3           0  0  0
    3.3557    1.4839    1.4213 N   0  0  0  0  0  3           0  0  0
   -0.6972   -0.6809   -3.6542 C   0  0  0  0  0  4           0  0  0
   -2.8647    0.9205    0.6811 C   0  0  0  0  0  4           0  0  0
   -1.7959    0.8573   -1.5731 C   0  0  0  0  0  4           0  0  0
   -1.9882    0.0917    1.3959 C   0  0  0  0  0  4           0  0  0
   -0.7057    0.0144   -1.3248 C   0  0  0  0  0  4           0  0  0
   -0.1838   -0.7803   -2.3617 C   0  0  0  0  0  4           0  0  0
   -1.7356    0.1990   -3.9293 C   0  0  0  0  0  4           0  0  0
   -4.1815    1.0926    1.1539 C   0  0  0  0  0  4           0  0  0
   -2.2846    0.9522   -2.8919 C   0  0  0  0  0  4           0  0  0
   -2.4540   -0.5472    2.5596 C   0  0  0  0  0  4           0  0  0
   -4.6273    0.4500    2.3076 C   0  0  0  0  0  4           0  0  0
   -3.7629   -0.3786    3.0086 C   0  0  0  0  0  4           0  0  0
    0.0000    0.0000    0.0000 C   0  0  0  0  0  4           0  0  0
    2.1239   -0.6312    1.0932 C   0  0  0  0  0  4           0  0  0
    2.1245    1.0630   -0.6804 C   0  0  0  0  0  4           0  0  0
    2.5782    0.4356    2.0891 C   0  0  0  0  0  4           0  0  0
    2.5846    2.1046    0.3399 C   0  0  0  0  0  4           0  0  0
  1  6  1  0     0  0
  2  7  1  0     0  0
  2  8  1  0     0  0
  3  9  1  0     0  0
  3 18  2  0     0  0
  4 18  1  0     0  0
  4 19  1  0     0  0
  4 20  1  0     0  0
  5 21  1  0     0  0
  5 22  1  0     0  0
  6 11  2  0     0  0
  6 12  1  0     0  0
  7  9  2  0     0  0
  7 13  1  0     0  0
  8 10  2  0     0  0
  8 14  1  0     0  0
  9 15  1  0     0  0
 10 11  1  0     0  0
 10 18  1  0     0  0
 12 14  2  0     0  0
 13 16  2  0     0  0
 15 17  2  0     0  0
 16 17  1  0     0  0
 19 21  1  0     0  0
 20 22  1  0     0  0
M  END
> <standard_type>
pIC50

> <# Confs.>
8

> <canonical_smiles>
ClC1=CC2=C(C=C1)NC3=C(C=CC=C3)N=C2N4CCNCC4

> <standard_relation>
=

> <Publication_ID>
nan

> <predicted_activity_value>
nan

> <actual_activity_value>
-0.6522463410033232

> <Compound>
N-desmethyl-clozapine

> <standard_units>
uM

> hash
11916285922397132595

$$$$
35
XXILIB    08252103503D 0   0.00000     0.00000

 22 25  0     1  0            999 V2000
   -0.0371    1.6575   -4.9123 Cl  0  0  0  0  0  1           0  0  0
   -2.5314   -1.4914   -0.5616 N   0  0  0  0  0  3           0  0  0
   -0.6158    0.0000    1.1528 N   0  0  0  0  0  3           0  0  0
    1.3918   -0.0000   -0.0000 N   0  0  2  0  0  3           0  0  0
    4.1555    0.6378   -0.3597 N   0  0  0  0  0  3           0  0  0
   -0.6977    0.6876   -3.6522 C   0  0  0  0  0  4           0  0  0
   -2.8688   -0.9106    0.6740 C   0  0  0  0  0  4           0  0  0
   -1.7941   -0.8568   -1.5755 C   0  0  0  0  0  4           0  0  0
   -1.9907   -0.0848    1.3905 C   0  0  0  0  0  4           0  0  0
   -0.7048   -0.0134   -1.3251 C   0  0  0  0  0  4           0  0  0
   -0.1843    0.7846   -2.3597 C   0  0  0  0  0  4           0  0  0
   -1.7339   -0.1941   -3.9299 C   0  0  0  0  0  4           0  0  0
   -4.1906   -1.0688    1.1375 C   0  0  0  0  0  4           0  0  0
   -2.2815   -0.9512   -2.8948 C   0  0  0  0  0  4           0  0  0
   -2.4587    0.5627    2.5480 C   0  0  0  0  0  4           0  0  0
   -4.6383   -0.4180    2.2857 C   0  0  0  0  0  4           0  0  0
   -3.7717    0.4063    2.9891 C   0  0  0  0  0  4           0  0  0
    0.0000    0.0000    0.0000 C   0  0  0  0  0  4           0  0  0
    2.1554    0.6271    1.0861 C   0  0  0  0  0  4           0  0  0
    2.2145   -0.7807   -0.9315 C   0  0  0  0  0  4           0  0  0
    3.3077    1.4498    0.5133 C   0  0  0  0  0  4           0  0  0
    3.3685    0.0730   -1.4562 C   0  0  0  0  0  4           0  0  0
  1  6  1  0     0  0
  2  7  1  0     0  0
  2  8  1  0     0  0
  3  9  1  0     0  0
  3 18  2  0     0  0
  4 18  1  0     0  0
  4 19  1  0     0  0
  4 20  1  0     0  0
  5 21  1  0     0  0
  5 22  1  0     0  0
  6 11  2  0     0  0
  6 12  1  0     0  0
  7  9  2  0     0  0
  7 13  1  0     0  0
  8 10  2  0     0  0
  8 14  1  0     0  0
  9 15  1  0     0  0
 10 11  1  0     0  0
 10 18  1  0     0  0
 12 14  2  0     0  0
 13 16  2  0     0  0
 15 17  2  0     0  0
 16 17  1  0     0  0
 19 21  1  0     0  0
 20 22  1  0     0  0
M  END
> <standard_type>
pIC50

> <# Confs.>
8

> <canonical_smiles>
ClC1=CC2=C(C=C1)NC3=C(C=CC=C3)N=C2N4CCNCC4

> <standard_relation>
=

> <Publication_ID>
nan

> <predicted_activity_value>
nan

> <actual_activity_value>
-0.6522463410033232

> <Compound>
N-desmethyl-clozapine

> <standard_units>
uM

> hash
11916285922397132595

$$$$
35
XXILIB    08252103503D 0   0.00000     0.00000

 22 25  0     1  0            999 V2000
   -0.0371    1.6575   -4.9123 Cl  0  0  0  0  0  1           0  0  0
   -2.5314   -1.4914   -0.5616 N   0  0  0  0  0  3           0  0  0
   -0.6158    0.0000    1.1528 N   0  0  0  0  0  3           0  0  0
    1.3824    0.0000    0.0000 N   0  0  2  0  0  3           0  0  0
    3.3557   -0.4890    1.9958 N   0  0  0  0  0  3           0  0  0
   -0.6977    0.6876   -3.6522 C   0  0  0  0  0  4           0  0  0
   -2.8688   -0.9106    0.6740 C   0  0  0  0  0  4           0  0  0
   -1.7941   -0.8568   -1.5755 C   0  0  0  0  0  4           0  0  0
   -1.9907   -0.0848    1.3905 C   0  0  0  0  0  4           0  0  0
   -0.7048   -0.0134   -1.3251 C   0  0  0  0  0  4           0  0  0
   -0.1843    0.7846   -2.3597 C   0  0  0  0  0  4           0  0  0
   -1.7339   -0.1941   -3.9299 C   0  0  0  0  0  4           0  0  0
   -4.1906   -1.0688    1.1375 C   0  0  0  0  0  4           0  0  0
   -2.2815   -0.9512   -2.8948 C   0  0  0  0  0  4           0  0  0
   -2.4587    0.5627    2.5480 C   0  0  0  0  0  4           0  0  0
   -4.6383   -0.4180    2.2857 C   0  0  0  0  0  4           0  0  0
   -3.7717    0.4063    2.9891 C   0  0  0  0  0  4           0  0  0
    0.0000    0.0000    0.0000 C   0  0  0  0  0  4           0  0  0
    2.1239   -1.2623   -0.0000 C   0  0  0  0  0  4           0  0  0
    2.1245    1.1208    0.5804 C   0  0  0  0  0  4           0  0  0
    2.5782   -1.5914    1.4218 C   0  0  0  0  0  4           0  0  0
    2.5846    0.7579    1.9925 C   0  0  0  0  0  4           0  0  0
  1  6  1  0     0  0
  2  7  1  0     0  0
  2  8  1  0     0  0
  3  9  1  0     0  0
  3 18  2  0     0  0
  4 18  1  0     0  0
  4 19  1  0     0  0
  4 20  1  0     0  0
  5 21  1  0     0  0
  5 22  1  0     0  0
  6 11  2  0     0  0
  6 12  1  0     0  0
  7  9  2  0     0  0
  7 13  1  0     0  0
  8 10  2  0     0  0
  8 14  1  0     0  0
  9 15  1  0     0  0
 10 11  1  0     0  0
 10 18  1  0     0  0
 12 14  2  0     0  0
 13 16  2  0     0  0
 15 17  2  0     0  0
 16 17  1  0     0  0
 19 21  1  0     0  0
 20 22  1  0     0  0
M  END
> <standard_type>
pIC50

> <# Confs.>
8

> <canonical_smiles>
ClC1=CC2=C(C=C1)NC3=C(C=CC=C3)N=C2N4CCNCC4

> <standard_relation>
=

> <Publication_ID>
nan

> <predicted_activity_value>
nan

> <actual_activity_value>
-0.6522463410033232

> <Compound>
N-desmethyl-clozapine

> <standard_units>
uM

> hash
11916285922397132595

$$$$
35
XXILIB    08252103503D 0   0.00000     0.00000

 22 25  0     1  0            999 V2000
   -0.0324   -1.6434   -4.9176 Cl  0  0  0  0  0  1           0  0  0
   -2.5315    1.4935   -0.5593 N   0  0  0  0  0  3           0  0  0
   -0.6146    0.0000    1.1532 N   0  0  0  0  0  3           0  0  0
    1.3918    0.0000    0.0000 N   0  0  2  0  0  3           0  0  0
    4.1555   -0.6304   -0.3725 N   0  0  0  0  0  3           0  0  0
   -0.6972   -0.6809   -3.6542 C   0  0  0  0  0  4           0  0  0
   -2.8647    0.9205    0.6811 C   0  0  0  0  0  4           0  0  0
   -1.7959    0.8573   -1.5731 C   0  0  0  0  0  4           0  0  0
   -1.9882    0.0917    1.3959 C   0  0  0  0  0  4           0  0  0
   -0.7057    0.0144   -1.3248 C   0  0  0  0  0  4           0  0  0
   -0.1838   -0.7803   -2.3617 C   0  0  0  0  0  4           0  0  0
   -1.7356    0.1990   -3.9293 C   0  0  0  0  0  4           0  0  0
   -4.1815    1.0926    1.1539 C   0  0  0  0  0  4           0  0  0
   -2.2846    0.9522   -2.8919 C   0  0  0  0  0  4           0  0  0
   -2.4540   -0.5472    2.5596 C   0  0  0  0  0  4           0  0  0
   -4.6273    0.4500    2.3076 C   0  0  0  0  0  4           0  0  0
   -3.7629   -0.3786    3.0086 C   0  0  0  0  0  4           0  0  0
    0.0000    0.0000    0.0000 C   0  0  0  0  0  4           0  0  0
    2.1554    0.6271   -1.0861 C   0  0  0  0  0  4           0  0  0
    2.2145   -0.4163    1.1419 C   0  0  0  0  0  4           0  0  0
    3.3077   -0.2803   -1.5122 C   0  0  0  0  0  4           0  0  0
    3.3685   -1.2976    0.6648 C   0  0  0  0  0  4           0  0  0
  1  6  1  0     0  0
  2  7  1  0     0  0
  2  8  1  0     0  0
  3  9  1  0     0  0
  3 18  2  0     0  0
  4 18  1  0     0  0
  4 19  1  0     0  0
  4 20  1  0     0  0
  5 21  1  0     0  0
  5 22  1  0     0  0
  6 11  2  0     0  0
  6 12  1  0     0  0
  7  9  2  0     0  0
  7 13  1  0     0  0
  8 10  2  0     0  0
  8 14  1  0     0  0
  9 15  1  0     0  0
 10 11  1  0     0  0
 10 18  1  0     0  0
 12 14  2  0     0  0
 13 16  2  0     0  0
 15 17  2  0     0  0
 16 17  1  0     0  0
 19 21  1  0     0  0
 20 22  1  0     0  0
M  END
> <standard_type>
pIC50

> <# Confs.>
8

> <canonical_smiles>
ClC1=CC2=C(C=C1)NC3=C(C=CC=C3)N=C2N4CCNCC4

> <standard_relation>
=

> <Publication_ID>
nan

> <predicted_activity_value>
nan

> <actual_activity_value>
-0.6522463410033232

> <Compound>
N-desmethyl-clozapine

> <standard_units>
uM

> hash
11916285922397132595

$$$$
35
XXILIB    08252103503D 0   0.00000     0.00000

 22 25  0     1  0            999 V2000
   -0.0371    1.6575   -4.9123 Cl  0  0  0  0  0  1           0  0  0
   -2.5314   -1.4914   -0.5616 N   0  0  0  0  0  3           0  0  0
   -0.6158    0.0000    1.1528 N   0  0  0  0  0  3           0  0  0
    1.3824   -0.0000    0.0000 N   0  0  2  0  0  3           0  0  0
    3.3557   -1.9729    0.5744 N   0  0  0  0  0  3           0  0  0
   -0.6977    0.6876   -3.6522 C   0  0  0  0  0  4           0  0  0
   -2.8688   -0.9106    0.6740 C   0  0  0  0  0  4           0  0  0
   -1.7941   -0.8568   -1.5755 C   0  0  0  0  0  4           0  0  0
   -1.9907   -0.0848    1.3905 C   0  0  0  0  0  4           0  0  0
   -0.7048   -0.0134   -1.3251 C   0  0  0  0  0  4           0  0  0
   -0.1843    0.7846   -2.3597 C   0  0  0  0  0  4           0  0  0
   -1.7339   -0.1941   -3.9299 C   0  0  0  0  0  4           0  0  0
   -4.1906   -1.0688    1.1375 C   0  0  0  0  0  4           0  0  0
   -2.2815   -0.9512   -2.8948 C   0  0  0  0  0  4           0  0  0
   -2.4587    0.5627    2.5480 C   0  0  0  0  0  4           0  0  0
   -4.6383   -0.4180    2.2857 C   0  0  0  0  0  4           0  0  0
   -3.7717    0.4063    2.9891 C   0  0  0  0  0  4           0  0  0
    0.0000    0.0000    0.0000 C   0  0  0  0  0  4           0  0  0
    2.1239   -0.6312   -1.0932 C   0  0  0  0  0  4           0  0  0
    2.1245    0.0577    1.2608 C   0  0  0  0  0  4           0  0  0
    2.5782   -2.0270   -0.6673 C   0  0  0  0  0  4           0  0  0
    2.5846   -1.3466    1.6527 C   0  0  0  0  0  4           0  0  0
  1  6  1  0     0  0
  2  7  1  0     0  0
  2  8  1  0     0  0
  3  9  1  0     0  0
  3 18  2  0     0  0
  4 18  1  0     0  0
  4 19  1  0     0  0
  4 20  1  0     0  0
  5 21  1  0     0  0
  5 22  1  0     0  0
  6 11  2  0     0  0
  6 12  1  0     0  0
  7  9  2  0     0  0
  7 13  1  0     0  0
  8 10  2  0     0  0
  8 14  1  0     0  0
  9 15  1  0     0  0
 10 11  1  0     0  0
 10 18  1  0     0  0
 12 14  2  0     0  0
 13 16  2  0     0  0
 15 17  2  0     0  0
 16 17  1  0     0  0
 19 21  1  0     0  0
 20 22  1  0     0  0
M  END
> <standard_type>
pIC50

> <# Confs.>
8

> <canonical_smiles>
ClC1=CC2=C(C=C1)NC3=C(C=CC=C3)N=C2N4CCNCC4

> <standard_relation>
=

> <Publication_ID>
nan

> <predicted_activity_value>
nan

> <actual_activity_value>
-0.6522463410033232

> <Compound>
N-desmethyl-clozapine

> <standard_units>
uM

> hash
11916285922397132595

$$$$
35
XXILIB    08252103503D 0   0.00000     0.00000

 22 25  0     1  0            999 V2000
   -0.0324   -1.6434   -4.9176 Cl  0  0  0  0  0  1           0  0  0
   -2.5315    1.4935   -0.5593 N   0  0  0  0  0  3           0  0  0
   -0.6146    0.0000    1.1532 N   0  0  0  0  0  3           0  0  0
    1.3824    0.0000    0.0000 N   0  0  2  0  0  3           0  0  0
    3.3557   -0.4890    1.9958 N   0  0  0  0  0  3           0  0  0
   -0.6972   -0.6809   -3.6542 C   0  0  0  0  0  4           0  0  0
   -2.8647    0.9205    0.6811 C   0  0  0  0  0  4           0  0  0
   -1.7959    0.8573   -1.5731 C   0  0  0  0  0  4           0  0  0
   -1.9882    0.0917    1.3959 C   0  0  0  0  0  4           0  0  0
   -0.7057    0.0144   -1.3248 C   0  0  0  0  0  4           0  0  0
   -0.1838   -0.7803   -2.3617 C   0  0  0  0  0  4           0  0  0
   -1.7356    0.1990   -3.9293 C   0  0  0  0  0  4           0  0  0
   -4.1815    1.0926    1.1539 C   0  0  0  0  0  4           0  0  0
   -2.2846    0.9522   -2.8919 C   0  0  0  0  0  4           0  0  0
   -2.4540   -0.5472    2.5596 C   0  0  0  0  0  4           0  0  0
   -4.6273    0.4500    2.3076 C   0  0  0  0  0  4           0  0  0
   -3.7629   -0.3786    3.0086 C   0  0  0  0  0  4           0  0  0
    0.0000    0.0000    0.0000 C   0  0  0  0  0  4           0  0  0
    2.1239   -1.2623   -0.0000 C   0  0  0  0  0  4           0  0  0
    2.1245    1.1208    0.5804 C   0  0  0  0  0  4           0  0  0
    2.5782   -1.5914    1.4218 C   0  0  0  0  0  4           0  0  0
    2.5846    0.7579    1.9925 C   0  0  0  0  0  4           0  0  0
  1  6  1  0     0  0
  2  7  1  0     0  0
  2  8  1  0     0  0
  3  9  1  0     0  0
  3 18  2  0     0  0
  4 18  1  0     0  0
  4 19  1  0     0  0
  4 20  1  0     0  0
  5 21  1  0     0  0
  5 22  1  0     0  0
  6 11  2  0     0  0
  6 12  1  0     0  0
  7  9  2  0     0  0
  7 13  1  0     0  0
  8 10  2  0     0  0
  8 14  1  0     0  0
  9 15  1  0     0  0
 10 11  1  0     0  0
 10 18  1  0     0  0
 12 14  2  0     0  0
 13 16  2  0     0  0
 15 17  2  0     0  0
 16 17  1  0     0  0
 19 21  1  0     0  0
 20 22  1  0     0  0
M  END
> <standard_type>
pIC50

> <# Confs.>
8

> <canonical_smiles>
ClC1=CC2=C(C=C1)NC3=C(C=CC=C3)N=C2N4CCNCC4

> <standard_relation>
=

> <Publication_ID>
nan

> <predicted_activity_value>
nan

> <actual_activity_value>
-0.6522463410033232

> <Compound>
N-desmethyl-clozapine

> <standard_units>
uM

> hash
11916285922397132595

$$$$
35
XXILIB    08252103503D 0   0.00000     0.00000

 22 25  0     1  0            999 V2000
   -0.0324   -1.6434   -4.9176 Cl  0  0  0  0  0  1           0  0  0
   -2.5315    1.4935   -0.5593 N   0  0  0  0  0  3           0  0  0
   -0.6146    0.0000    1.1532 N   0  0  0  0  0  3           0  0  0
    1.3918   -0.0000    0.0000 N   0  0  2  0  0  3           0  0  0
    4.1555    0.0073   -0.7322 N   0  0  0  0  0  3           0  0  0
   -0.6972   -0.6809   -3.6542 C   0  0  0  0  0  4           0  0  0
   -2.8647    0.9205    0.6811 C   0  0  0  0  0  4           0  0  0
   -1.7959    0.8573   -1.5731 C   0  0  0  0  0  4           0  0  0
   -1.9882    0.0917    1.3959 C   0  0  0  0  0  4           0  0  0
   -0.7057    0.0144   -1.3248 C   0  0  0  0  0  4           0  0  0
   -0.1838   -0.7803   -2.3617 C   0  0  0  0  0  4           0  0  0
   -1.7356    0.1990   -3.9293 C   0  0  0  0  0  4           0  0  0
   -4.1815    1.0926    1.1539 C   0  0  0  0  0  4           0  0  0
   -2.2846    0.9522   -2.8919 C   0  0  0  0  0  4           0  0  0
   -2.4540   -0.5472    2.5596 C   0  0  0  0  0  4           0  0  0
   -4.6273    0.4500    2.3076 C   0  0  0  0  0  4           0  0  0
   -3.7629   -0.3786    3.0086 C   0  0  0  0  0  4           0  0  0
    0.0000    0.0000    0.0000 C   0  0  0  0  0  4           0  0  0
    2.1554    1.2541    0.0000 C   0  0  0  0  0  4           0  0  0
    2.2145   -1.1971    0.2104 C   0  0  0  0  0  4           0  0  0
    3.3077    1.1695   -0.9989 C   0  0  0  0  0  4           0  0  0
    3.3685   -1.2246   -0.7913 C   0  0  0  0  0  4           0  0  0
  1  6  1  0     0  0
  2  7  1  0     0  0
  2  8  1  0     0  0
  3  9  1  0     0  0
  3 18  2  0     0  0
  4 18  1  0     0  0
  4 19  1  0     0  0
  4 20  1  0     0  0
  5 21  1  0     0  0
  5 22  1  0     0  0
  6 11  2  0     0  0
  6 12  1  0     0  0
  7  9  2  0     0  0
  7 13  1  0     0  0
  8 10  2  0     0  0
  8 14  1  0     0  0
  9 15  1  0     0  0
 10 11  1  0     0  0
 10 18  1  0     0  0
 12 14  2  0     0  0
 13 16  2  0     0  0
 15 17  2  0     0  0
 16 17  1  0     0  0
 19 21  1  0     0  0
 20 22  1  0     0  0
M  END
> <standard_type>
pIC50

> <# Confs.>
8

> <canonical_smiles>
ClC1=CC2=C(C=C1)NC3=C(C=CC=C3)N=C2N4CCNCC4

> <standard_relation>
=

> <Publication_ID>
nan

> <predicted_activity_value>
nan

> <actual_activity_value>
-0.6522463410033232

> <Compound>
N-desmethyl-clozapine

> <standard_units>
uM

> hash
11916285922397132595

$$$$
35
XXILIB    08252103503D 0   0.00000     0.00000

 22 25  0     1  0            999 V2000
   -0.0371    1.6575   -4.9123 Cl  0  0  0  0  0  1           0  0  0
   -2.5314   -1.4914   -0.5616 N   0  0  0  0  0  3           0  0  0
   -0.6158    0.0000    1.1528 N   0  0  0  0  0  3           0  0  0
    1.3918   -0.0000    0.0000 N   0  0  2  0  0  3           0  0  0
    4.1555    0.0073   -0.7322 N   0  0  0  0  0  3           0  0  0
   -0.6977    0.6876   -3.6522 C   0  0  0  0  0  4           0  0  0
   -2.8688   -0.9106    0.6740 C   0  0  0  0  0  4           0  0  0
   -1.7941   -0.8568   -1.5755 C   0  0  0  0  0  4           0  0  0
   -1.9907   -0.0848    1.3905 C   0  0  0  0  0  4           0  0  0
   -0.7048   -0.0134   -1.3251 C   0  0  0  0  0  4           0  0  0
   -0.1843    0.7846   -2.3597 C   0  0  0  0  0  4           0  0  0
   -1.7339   -0.1941   -3.9299 C   0  0  0  0  0  4           0  0  0
   -4.1906   -1.0688    1.1375 C   0  0  0  0  0  4           0  0  0
   -2.2815   -0.9512   -2.8948 C   0  0  0  0  0  4           0  0  0
   -2.4587    0.5627    2.5480 C   0  0  0  0  0  4           0  0  0
   -4.6383   -0.4180    2.2857 C   0  0  0  0  0  4           0  0  0
   -3.7717    0.4063    2.9891 C   0  0  0  0  0  4           0  0  0
    0.0000    0.0000    0.0000 C   0  0  0  0  0  4           0  0  0
    2.1554    1.2541    0.0000 C   0  0  0  0  0  4           0  0  0
    2.2145   -1.1971    0.2104 C   0  0  0  0  0  4           0  0  0
    3.3077    1.1695   -0.9989 C   0  0  0  0  0  4           0  0  0
    3.3685   -1.2246   -0.7913 C   0  0  0  0  0  4           0  0  0
  1  6  1  0     0  0
  2  7  1  0     0  0
  2  8  1  0     0  0
  3  9  1  0     0  0
  3 18  2  0     0  0
  4 18  1  0     0  0
  4 19  1  0     0  0
  4 20  1  0     0  0
  5 21  1  0     0  0
  5 22  1  0     0  0
  6 11  2  0     0  0
  6 12  1  0     0  0
  7  9  2  0     0  0
  7 13  1  0     0  0
  8 10  2  0     0  0
  8 14  1  0     0  0
  9 15  1  0     0  0
 10 11  1  0     0  0
 10 18  1  0     0  0
 12 14  2  0     0  0
 13 16  2  0     0  0
 15 17  2  0     0  0
 16 17  1  0     0  0
 19 21  1  0     0  0
 20 22  1  0     0  0
M  END
> <standard_type>
pIC50

> <# Confs.>
8

> <canonical_smiles>
ClC1=CC2=C(C=C1)NC3=C(C=CC=C3)N=C2N4CCNCC4

> <standard_relation>
=

> <Publication_ID>
nan

> <predicted_activity_value>
nan

> <actual_activity_value>
-0.6522463410033232

> <Compound>
N-desmethyl-clozapine

> <standard_units>
uM

> hash
11916285922397132595

$$$$
34
XXILIB    08252103503D 0   0.00000     0.00000

 29 33  0     1  0            999 V2000
   -2.8113   -0.1528   -2.3205 F   0  0  0  0  0  1           0  0  0
   -4.0930   -0.2862    2.4401 O   0  0  0  0  0  2           0  0  0
    1.3663    0.0000   -0.0000 O   0  0  0  0  0  2           0  0  0
   -4.0053    0.6350    5.1485 O   0  0  0  0  0  2           0  0  0
   -2.1284   -0.2680    6.0695 O   0  0  0  0  0  2           0  0  0
   -0.0429    0.1037    2.5317 N   0  0  2  0  0  3           0  0  0
   -0.0256    0.1254   -2.4688 N   0  0  2  0  0  3           0  0  0
    2.1882    1.7646   -4.8944 N   0  0  0  0  0  3           0  0  0
   -2.0785   -0.1250   -1.1957 C   0  0  0  0  0  4           0  0  0
   -2.8792   -0.1178    2.4699 C   0  0  0  0  0  4           0  0  0
    0.0000    0.0000    0.0000 C   0  0  0  0  0  4           0  0  0
   -0.6771    0.0000    1.2515 C   0  0  0  0  0  4           0  0  0
   -0.8237    0.1829    3.6747 C   0  0  0  0  0  4           0  0  0
   -0.6814    0.0017   -1.2546 C   0  0  0  0  0  4           0  0  0
   -2.0841   -0.1024    1.2153 C   0  0  0  0  0  4           0  0  0
   -2.1583    0.0873    3.7566 C   0  0  0  0  0  4           0  0  0
   -2.7746   -0.1845    0.0064 C   0  0  0  0  0  4           0  0  0
   -2.8731    0.1894    5.0367 C   0  0  0  0  0  4           0  0  0
    1.9760   -1.2883   -0.0000 C   0  0  0  0  0  4           0  0  0
    1.4028    0.2705    2.6996 C   0  0  1  0  0  4           0  0  0
    1.0265    1.0821   -4.3393 C   0  0  2  0  0  4           0  0  0
    0.7989    1.2771   -2.8319 C   0  0  0  0  0  4           0  0  0
   -0.0842   -0.8791   -3.5302 C   0  0  0  0  0  4           0  0  0
    3.4660    1.1415   -4.5609 C   0  0  0  0  0  4           0  0  0
    1.0131   -0.4431   -4.5127 C   0  0  2  0  0  4           0  0  0
    2.1449    1.4529    2.1295 C   0  0  0  0  0  4           0  0  0
    1.9819    1.3210    3.6131 C   0  0  0  0  0  4           0  0  0
    3.4870   -0.3457   -4.9014 C   0  0  0  0  0  4           0  0  0
    2.3663   -1.0802   -4.1769 C   0  0  0  0  0  4           0  0  0
  1  9  1  0     0  0
  2 10  2  0     0  0
  3 11  1  0     0  0
  3 19  1  0     0  0
  4 18  2  0     0  0
  5 18  1  0     0  0
  6 12  1  0     0  0
  6 13  1  0     0  0
  6 20  1  0     0  0
  7 14  1  0     0  0
  7 22  1  0     0  0
  7 23  1  0     0  0
  8 21  1  0     0  0
  8 24  1  0     0  0
  9 14  1  0     0  0
  9 17  2  0     0  0
 10 15  1  0     0  0
 10 16  1  0     0  0
 11 12  1  0     0  0
 11 14  2  0     0  0
 12 15  2  0     0  0
 13 16  2  0     0  0
 15 17  1  0     0  0
 16 18  1  0     0  0
 20 26  1  0     0  0
 20 27  1  0     0  0
 21 22  1  0     0  0
 21 25  1  0     0  0
 23 25  1  0     0  0
 24 28  1  0     0  0
 25 29  1  0     0  0
 26 27  1  0     0  0
 28 29  1  0     0  0
M  END
> <standard_type>
pIC50

> <# Confs.>
25

> <canonical_smiles>
COc1c(N2C[C@@H]3CCCN[C@@H]3C2)c(F)cc4c(=O)c(C(O)=O)cn(C5CC5)c14

> <standard_relation>
=

> <Publication_ID>
nan

> <predicted_activity_value>
nan

> <actual_activity_value>
-2.110589710299249

> <Compound>
Moxifloxacin

> <standard_units>
uM

> hash
4544010511512484446

$$$$
34
XXILIB    08252103503D 0   0.00000     0.00000

 29 33  0     1  0            999 V2000
   -2.8113   -0.1528   -2.3205 F   0  0  0  0  0  1           0  0  0
   -4.0930   -0.2862    2.4401 O   0  0  0  0  0  2           0  0  0
    1.3663    0.0000   -0.0000 O   0  0  0  0  0  2           0  0  0
   -4.0053    0.6350    5.1485 O   0  0  0  0  0  2           0  0  0
   -2.1284   -0.2680    6.0695 O   0  0  0  0  0  2           0  0  0
   -0.0429    0.1037    2.5317 N   0  0  2  0  0  3           0  0  0
   -0.0256    0.1254   -2.4688 N   0  0  2  0  0  3           0  0  0
    0.9032   -0.9205   -5.8621 N   0  0  0  0  0  3           0  0  0
   -2.0785   -0.1250   -1.1957 C   0  0  0  0  0  4           0  0  0
   -2.8792   -0.1178    2.4699 C   0  0  0  0  0  4           0  0  0
    0.0000    0.0000    0.0000 C   0  0  0  0  0  4           0  0  0
   -0.6771    0.0000    1.2515 C   0  0  0  0  0  4           0  0  0
   -0.8237    0.1829    3.6747 C   0  0  0  0  0  4           0  0  0
   -0.6814    0.0017   -1.2546 C   0  0  0  0  0  4           0  0  0
   -2.0841   -0.1024    1.2153 C   0  0  0  0  0  4           0  0  0
   -2.1583    0.0873    3.7566 C   0  0  0  0  0  4           0  0  0
   -2.7746   -0.1845    0.0064 C   0  0  0  0  0  4           0  0  0
   -2.8731    0.1894    5.0367 C   0  0  0  0  0  4           0  0  0
    1.9760   -1.2883   -0.0000 C   0  0  0  0  0  4           0  0  0
    1.4028    0.2705    2.6996 C   0  0  1  0  0  4           0  0  0
    1.0263   -0.4340   -4.4940 C   0  0  2  0  0  4           0  0  0
   -0.0821   -0.8812   -3.5278 C   0  0  0  0  0  4           0  0  0
    0.8023    1.2752   -2.8319 C   0  0  0  0  0  4           0  0  0
   -0.1315   -0.2516   -6.6458 C   0  0  0  0  0  4           0  0  0
    1.0485    1.0928   -4.3371 C   0  0  2  0  0  4           0  0  0
    2.1449    1.4529    2.1295 C   0  0  0  0  0  4           0  0  0
    1.9819    1.3210    3.6131 C   0  0  0  0  0  4           0  0  0
    0.0137    1.2670   -6.6129 C   0  0  0  0  0  4           0  0  0
   -0.0309    1.7816   -5.1799 C   0  0  0  0  0  4           0  0  0
  1  9  1  0     0  0
  2 10  2  0     0  0
  3 11  1  0     0  0
  3 19  1  0     0  0
  4 18  2  0     0  0
  5 18  1  0     0  0
  6 12  1  0     0  0
  6 13  1  0     0  0
  6 20  1  0     0  0
  7 14  1  0     0  0
  7 22  1  0     0  0
  7 23  1  0     0  0
  8 21  1  0     0  0
  8 24  1  0     0  0
  9 14  1  0     0  0
  9 17  2  0     0  0
 10 15  1  0     0  0
 10 16  1  0     0  0
 11 12  1  0     0  0
 11 14  2  0     0  0
 12 15  2  0     0  0
 13 16  2  0     0  0
 15 17  1  0     0  0
 16 18  1  0     0  0
 20 26  1  0     0  0
 20 27  1  0     0  0
 21 22  1  0     0  0
 21 25  1  0     0  0
 23 25  1  0     0  0
 24 28  1  0     0  0
 25 29  1  0     0  0
 26 27  1  0     0  0
 28 29  1  0     0  0
M  END
> <standard_type>
pIC50

> <# Confs.>
25

> <canonical_smiles>
COc1c(N2C[C@@H]3CCCN[C@@H]3C2)c(F)cc4c(=O)c(C(O)=O)cn(C5CC5)c14

> <standard_relation>
=

> <Publication_ID>
nan

> <predicted_activity_value>
nan

> <actual_activity_value>
-2.110589710299249

> <Compound>
Moxifloxacin

> <standard_units>
uM

> hash
4544010511512484446

$$$$
34
XXILIB    08252103503D 0   0.00000     0.00000

 29 33  0     1  0            999 V2000
   -2.8113   -0.1528   -2.3205 F   0  0  0  0  0  1           0  0  0
   -4.0930   -0.2862    2.4401 O   0  0  0  0  0  2           0  0  0
    1.3663    0.0000   -0.0000 O   0  0  0  0  0  2           0  0  0
   -2.4012   -0.1618    6.1077 O   0  0  0  0  0  2           0  0  0
   -4.1095    0.7171    4.8848 O   0  0  0  0  0  2           0  0  0
   -0.0429    0.1037    2.5317 N   0  0  2  0  0  3           0  0  0
   -0.0256    0.1254   -2.4688 N   0  0  2  0  0  3           0  0  0
    2.1882    1.7646   -4.8944 N   0  0  0  0  0  3           0  0  0
   -2.0785   -0.1250   -1.1957 C   0  0  0  0  0  4           0  0  0
   -2.8792   -0.1178    2.4699 C   0  0  0  0  0  4           0  0  0
    0.0000    0.0000    0.0000 C   0  0  0  0  0  4           0  0  0
   -0.6771    0.0000    1.2515 C   0  0  0  0  0  4           0  0  0
   -0.8237    0.1829    3.6747 C   0  0  0  0  0  4           0  0  0
   -0.6814    0.0017   -1.2546 C   0  0  0  0  0  4           0  0  0
   -2.0841   -0.1024    1.2153 C   0  0  0  0  0  4           0  0  0
   -2.1583    0.0873    3.7566 C   0  0  0  0  0  4           0  0  0
   -2.7746   -0.1845    0.0064 C   0  0  0  0  0  4           0  0  0
   -2.8731    0.1894    5.0367 C   0  0  0  0  0  4           0  0  0
    1.9760   -1.2883   -0.0000 C   0  0  0  0  0  4           0  0  0
    1.4028    0.2705    2.6996 C   0  0  1  0  0  4           0  0  0
    1.0265    1.0821   -4.3393 C   0  0  2  0  0  4           0  0  0
    0.7989    1.2771   -2.8319 C   0  0  0  0  0  4           0  0  0
   -0.0842   -0.8791   -3.5302 C   0  0  0  0  0  4           0  0  0
    3.4660    1.1415   -4.5609 C   0  0  0  0  0  4           0  0  0
    1.0131   -0.4431   -4.5127 C   0  0  2  0  0  4           0  0  0
    2.1449    1.4529    2.1295 C   0  0  0  0  0  4           0  0  0
    1.9819    1.3210    3.6131 C   0  0  0  0  0  4           0  0  0
    3.4870   -0.3457   -4.9014 C   0  0  0  0  0  4           0  0  0
    2.3663   -1.0802   -4.1769 C   0  0  0  0  0  4           0  0  0
  1  9  1  0     0  0
  2 10  2  0     0  0
  3 11  1  0     0  0
  3 19  1  0     0  0
  4 18  2  0     0  0
  5 18  1  0     0  0
  6 12  1  0     0  0
  6 13  1  0     0  0
  6 20  1  0     0  0
  7 14  1  0     0  0
  7 22  1  0     0  0
  7 23  1  0     0  0
  8 21  1  0     0  0
  8 24  1  0     0  0
  9 14  1  0     0  0
  9 17  2  0     0  0
 10 15  1  0     0  0
 10 16  1  0     0  0
 11 12  1  0     0  0
 11 14  2  0     0  0
 12 15  2  0     0  0
 13 16  2  0     0  0
 15 17  1  0     0  0
 16 18  1  0     0  0
 20 26  1  0     0  0
 20 27  1  0     0  0
 21 22  1  0     0  0
 21 25  1  0     0  0
 23 25  1  0     0  0
 24 28  1  0     0  0
 25 29  1  0     0  0
 26 27  1  0     0  0
 28 29  1  0     0  0
M  END
> <standard_type>
pIC50

> <# Confs.>
25

> <canonical_smiles>
COc1c(N2C[C@@H]3CCCN[C@@H]3C2)c(F)cc4c(=O)c(C(O)=O)cn(C5CC5)c14

> <standard_relation>
=

> <Publication_ID>
nan

> <predicted_activity_value>
nan

> <actual_activity_value>
-2.110589710299249

> <Compound>
Moxifloxacin

> <standard_units>
uM

> hash
4544010511512484446

$$$$
34
XXILIB    08252103503D 0   0.00000     0.00000

 29 33  0     1  0            999 V2000
   -2.8113   -0.1528   -2.3205 F   0  0  0  0  0  1           0  0  0
   -4.0930   -0.2862    2.4401 O   0  0  0  0  0  2           0  0  0
    1.3663    0.0000   -0.0000 O   0  0  0  0  0  2           0  0  0
   -2.4012   -0.1618    6.1077 O   0  0  0  0  0  2           0  0  0
   -4.1095    0.7171    4.8848 O   0  0  0  0  0  2           0  0  0
   -0.0429    0.1037    2.5317 N   0  0  2  0  0  3           0  0  0
   -0.0256    0.1254   -2.4688 N   0  0  2  0  0  3           0  0  0
    0.9032   -0.9205   -5.8621 N   0  0  0  0  0  3           0  0  0
   -2.0785   -0.1250   -1.1957 C   0  0  0  0  0  4           0  0  0
   -2.8792   -0.1178    2.4699 C   0  0  0  0  0  4           0  0  0
    0.0000    0.0000    0.0000 C   0  0  0  0  0  4           0  0  0
   -0.6771    0.0000    1.2515 C   0  0  0  0  0  4           0  0  0
   -0.8237    0.1829    3.6747 C   0  0  0  0  0  4           0  0  0
   -0.6814    0.0017   -1.2546 C   0  0  0  0  0  4           0  0  0
   -2.0841   -0.1024    1.2153 C   0  0  0  0  0  4           0  0  0
   -2.1583    0.0873    3.7566 C   0  0  0  0  0  4           0  0  0
   -2.7746   -0.1845    0.0064 C   0  0  0  0  0  4           0  0  0
   -2.8731    0.1894    5.0367 C   0  0  0  0  0  4           0  0  0
    1.9760   -1.2883   -0.0000 C   0  0  0  0  0  4           0  0  0
    1.4028    0.2705    2.6996 C   0  0  1  0  0  4           0  0  0
    1.0263   -0.4340   -4.4940 C   0  0  2  0  0  4           0  0  0
   -0.0821   -0.8812   -3.5278 C   0  0  0  0  0  4           0  0  0
    0.8023    1.2752   -2.8319 C   0  0  0  0  0  4           0  0  0
   -0.1315   -0.2516   -6.6458 C   0  0  0  0  0  4           0  0  0
    1.0485    1.0928   -4.3371 C   0  0  2  0  0  4           0  0  0
    2.1449    1.4529    2.1295 C   0  0  0  0  0  4           0  0  0
    1.9819    1.3210    3.6131 C   0  0  0  0  0  4           0  0  0
    0.0137    1.2670   -6.6129 C   0  0  0  0  0  4           0  0  0
   -0.0309    1.7816   -5.1799 C   0  0  0  0  0  4           0  0  0
  1  9  1  0     0  0
  2 10  2  0     0  0
  3 11  1  0     0  0
  3 19  1  0     0  0
  4 18  2  0     0  0
  5 18  1  0     0  0
  6 12  1  0     0  0
  6 13  1  0     0  0
  6 20  1  0     0  0
  7 14  1  0     0  0
  7 22  1  0     0  0
  7 23  1  0     0  0
  8 21  1  0     0  0
  8 24  1  0     0  0
  9 14  1  0     0  0
  9 17  2  0     0  0
 10 15  1  0     0  0
 10 16  1  0     0  0
 11 12  1  0     0  0
 11 14  2  0     0  0
 12 15  2  0     0  0
 13 16  2  0     0  0
 15 17  1  0     0  0
 16 18  1  0     0  0
 20 26  1  0     0  0
 20 27  1  0     0  0
 21 22  1  0     0  0
 21 25  1  0     0  0
 23 25  1  0     0  0
 24 28  1  0     0  0
 25 29  1  0     0  0
 26 27  1  0     0  0
 28 29  1  0     0  0
M  END
> <standard_type>
pIC50

> <# Confs.>
25

> <canonical_smiles>
COc1c(N2C[C@@H]3CCCN[C@@H]3C2)c(F)cc4c(=O)c(C(O)=O)cn(C5CC5)c14

> <standard_relation>
=

> <Publication_ID>
nan

> <predicted_activity_value>
nan

> <actual_activity_value>
-2.110589710299249

> <Compound>
Moxifloxacin

> <standard_units>
uM

> hash
4544010511512484446

$$$$
34
XXILIB    08252103503D 0   0.00000     0.00000

 29 33  0     1  0            999 V2000
   -2.8113   -0.1528   -2.3205 F   0  0  0  0  0  1           0  0  0
   -4.0930   -0.2862    2.4401 O   0  0  0  0  0  2           0  0  0
    1.3663    0.0000   -0.0000 O   0  0  0  0  0  2           0  0  0
   -4.0053    0.6350    5.1485 O   0  0  0  0  0  2           0  0  0
   -2.1284   -0.2680    6.0695 O   0  0  0  0  0  2           0  0  0
   -0.0429    0.1037    2.5317 N   0  0  2  0  0  3           0  0  0
   -0.0256    0.1254   -2.4688 N   0  0  2  0  0  3           0  0  0
    0.9032   -0.9205   -5.8621 N   0  0  0  0  0  3           0  0  0
   -2.0785   -0.1250   -1.1957 C   0  0  0  0  0  4           0  0  0
   -2.8792   -0.1178    2.4699 C   0  0  0  0  0  4           0  0  0
    0.0000    0.0000    0.0000 C   0  0  0  0  0  4           0  0  0
   -0.6771    0.0000    1.2515 C   0  0  0  0  0  4           0  0  0
   -0.8237    0.1829    3.6747 C   0  0  0  0  0  4           0  0  0
   -0.6814    0.0017   -1.2546 C   0  0  0  0  0  4           0  0  0
   -2.0841   -0.1024    1.2153 C   0  0  0  0  0  4           0  0  0
   -2.1583    0.0873    3.7566 C   0  0  0  0  0  4           0  0  0
   -2.7746   -0.1845    0.0064 C   0  0  0  0  0  4           0  0  0
   -2.8731    0.1894    5.0367 C   0  0  0  0  0  4           0  0  0
    1.9760   -1.1157   -0.6441 C   0  0  0  0  0  4           0  0  0
    1.4028    0.2705    2.6996 C   0  0  1  0  0  4           0  0  0
    1.0263   -0.4340   -4.4940 C   0  0  2  0  0  4           0  0  0
   -0.0821   -0.8812   -3.5278 C   0  0  0  0  0  4           0  0  0
    0.8023    1.2752   -2.8319 C   0  0  0  0  0  4           0  0  0
   -0.1315   -0.2516   -6.6458 C   0  0  0  0  0  4           0  0  0
    1.0485    1.0928   -4.3371 C   0  0  2  0  0  4           0  0  0
    2.1362   -0.2592    3.9059 C   0  0  0  0  0  4           0  0  0
    2.3585   -0.8877    2.5640 C   0  0  0  0  0  4           0  0  0
    0.0137    1.2670   -6.6129 C   0  0  0  0  0  4           0  0  0
   -0.0309    1.7816   -5.1799 C   0  0  0  0  0  4           0  0  0
  1  9  1  0     0  0
  2 10  2  0     0  0
  3 11  1  0     0  0
  3 19  1  0     0  0
  4 18  2  0     0  0
  5 18  1  0     0  0
  6 12  1  0     0  0
  6 13  1  0     0  0
  6 20  1  0     0  0
  7 14  1  0     0  0
  7 22  1  0     0  0
  7 23  1  0     0  0
  8 21  1  0     0  0
  8 24  1  0     0  0
  9 14  1  0     0  0
  9 17  2  0     0  0
 10 15  1  0     0  0
 10 16  1  0     0  0
 11 12  1  0     0  0
 11 14  2  0     0  0
 12 15  2  0     0  0
 13 16  2  0     0  0
 15 17  1  0     0  0
 16 18  1  0     0  0
 20 26  1  0     0  0
 20 27  1  0     0  0
 21 22  1  0     0  0
 21 25  1  0     0  0
 23 25  1  0     0  0
 24 28  1  0     0  0
 25 29  1  0     0  0
 26 27  1  0     0  0
 28 29  1  0     0  0
M  END
> <standard_type>
pIC50

> <# Confs.>
25

> <canonical_smiles>
COc1c(N2C[C@@H]3CCCN[C@@H]3C2)c(F)cc4c(=O)c(C(O)=O)cn(C5CC5)c14

> <standard_relation>
=

> <Publication_ID>
nan

> <predicted_activity_value>
nan

> <actual_activity_value>
-2.110589710299249

> <Compound>
Moxifloxacin

> <standard_units>
uM

> hash
4544010511512484446

$$$$
34
XXILIB    08252103503D 0   0.00000     0.00000

 29 33  0     1  0            999 V2000
   -2.8113   -0.1528   -2.3205 F   0  0  0  0  0  1           0  0  0
   -4.0930   -0.2862    2.4401 O   0  0  0  0  0  2           0  0  0
    1.3663    0.0000   -0.0000 O   0  0  0  0  0  2           0  0  0
   -2.4012   -0.1618    6.1077 O   0  0  0  0  0  2           0  0  0
   -4.1095    0.7171    4.8848 O   0  0  0  0  0  2           0  0  0
   -0.0429    0.1037    2.5317 N   0  0  2  0  0  3           0  0  0
   -0.0256    0.1254   -2.4688 N   0  0  2  0  0  3           0  0  0
    0.9032   -0.9205   -5.8621 N   0  0  0  0  0  3           0  0  0
   -2.0785   -0.1250   -1.1957 C   0  0  0  0  0  4           0  0  0
   -2.8792   -0.1178    2.4699 C   0  0  0  0  0  4           0  0  0
    0.0000    0.0000    0.0000 C   0  0  0  0  0  4           0  0  0
   -0.6771    0.0000    1.2515 C   0  0  0  0  0  4           0  0  0
   -0.8237    0.1829    3.6747 C   0  0  0  0  0  4           0  0  0
   -0.6814    0.0017   -1.2546 C   0  0  0  0  0  4           0  0  0
   -2.0841   -0.1024    1.2153 C   0  0  0  0  0  4           0  0  0
   -2.1583    0.0873    3.7566 C   0  0  0  0  0  4           0  0  0
   -2.7746   -0.1845    0.0064 C   0  0  0  0  0  4           0  0  0
   -2.8731    0.1894    5.0367 C   0  0  0  0  0  4           0  0  0
    1.9760   -1.1157   -0.6441 C   0  0  0  0  0  4           0  0  0
    1.4028    0.2705    2.6996 C   0  0  1  0  0  4           0  0  0
    1.0263   -0.4340   -4.4940 C   0  0  2  0  0  4           0  0  0
   -0.0821   -0.8812   -3.5278 C   0  0  0  0  0  4           0  0  0
    0.8023    1.2752   -2.8319 C   0  0  0  0  0  4           0  0  0
   -0.1315   -0.2516   -6.6458 C   0  0  0  0  0  4           0  0  0
    1.0485    1.0928   -4.3371 C   0  0  2  0  0  4           0  0  0
    2.1362   -0.2592    3.9059 C   0  0  0  0  0  4           0  0  0
    2.3585   -0.8877    2.5640 C   0  0  0  0  0  4           0  0  0
    0.0137    1.2670   -6.6129 C   0  0  0  0  0  4           0  0  0
   -0.0309    1.7816   -5.1799 C   0  0  0  0  0  4           0  0  0
  1  9  1  0     0  0
  2 10  2  0     0  0
  3 11  1  0     0  0
  3 19  1  0     0  0
  4 18  2  0     0  0
  5 18  1  0     0  0
  6 12  1  0     0  0
  6 13  1  0     0  0
  6 20  1  0     0  0
  7 14  1  0     0  0
  7 22  1  0     0  0
  7 23  1  0     0  0
  8 21  1  0     0  0
  8 24  1  0     0  0
  9 14  1  0     0  0
  9 17  2  0     0  0
 10 15  1  0     0  0
 10 16  1  0     0  0
 11 12  1  0     0  0
 11 14  2  0     0  0
 12 15  2  0     0  0
 13 16  2  0     0  0
 15 17  1  0     0  0
 16 18  1  0     0  0
 20 26  1  0     0  0
 20 27  1  0     0  0
 21 22  1  0     0  0
 21 25  1  0     0  0
 23 25  1  0     0  0
 24 28  1  0     0  0
 25 29  1  0     0  0
 26 27  1  0     0  0
 28 29  1  0     0  0
M  END
> <standard_type>
pIC50

> <# Confs.>
25

> <canonical_smiles>
COc1c(N2C[C@@H]3CCCN[C@@H]3C2)c(F)cc4c(=O)c(C(O)=O)cn(C5CC5)c14

> <standard_relation>
=

> <Publication_ID>
nan

> <predicted_activity_value>
nan

> <actual_activity_value>
-2.110589710299249

> <Compound>
Moxifloxacin

> <standard_units>
uM

> hash
4544010511512484446

$$$$
34
XXILIB    08252103503D 0   0.00000     0.00000

 29 33  0     1  0            999 V2000
   -2.8113   -0.1528   -2.3205 F   0  0  0  0  0  1           0  0  0
   -4.0930   -0.2862    2.4401 O   0  0  0  0  0  2           0  0  0
    1.3663    0.0000   -0.0000 O   0  0  0  0  0  2           0  0  0
   -4.0053    0.6350    5.1485 O   0  0  0  0  0  2           0  0  0
   -2.1284   -0.2680    6.0695 O   0  0  0  0  0  2           0  0  0
   -0.0429    0.1037    2.5317 N   0  0  2  0  0  3           0  0  0
   -0.0256    0.1254   -2.4688 N   0  0  2  0  0  3           0  0  0
    2.7725    0.1380   -3.7414 N   0  0  0  0  0  3           0  0  0
   -2.0785   -0.1250   -1.1957 C   0  0  0  0  0  4           0  0  0
   -2.8792   -0.1178    2.4699 C   0  0  0  0  0  4           0  0  0
    0.0000    0.0000    0.0000 C   0  0  0  0  0  4           0  0  0
   -0.6771    0.0000    1.2515 C   0  0  0  0  0  4           0  0  0
   -0.8237    0.1829    3.6747 C   0  0  0  0  0  4           0  0  0
   -0.6814    0.0017   -1.2546 C   0  0  0  0  0  4           0  0  0
   -2.0841   -0.1024    1.2153 C   0  0  0  0  0  4           0  0  0
   -2.1583    0.0873    3.7566 C   0  0  0  0  0  4           0  0  0
   -2.7746   -0.1845    0.0064 C   0  0  0  0  0  4           0  0  0
   -2.8731    0.1894    5.0367 C   0  0  0  0  0  4           0  0  0
    1.9760   -1.2883   -0.0000 C   0  0  0  0  0  4           0  0  0
    1.4028    0.2705    2.6996 C   0  0  1  0  0  4           0  0  0
    1.5263    0.8196   -4.1098 C   0  0  2  0  0  4           0  0  0
    0.7995    1.2761   -2.8342 C   0  0  0  0  0  4           0  0  0
   -0.0998   -0.8671   -3.5386 C   0  0  0  0  0  4           0  0  0
    3.3704   -0.5479   -4.8829 C   0  0  0  0  0  4           0  0  0
    0.4963   -0.1259   -4.7461 C   0  0  2  0  0  4           0  0  0
    2.1449    1.4529    2.1295 C   0  0  0  0  0  4           0  0  0
    1.9819    1.3210    3.6131 C   0  0  0  0  0  4           0  0  0
    2.4313   -1.6231   -5.4212 C   0  0  0  0  0  4           0  0  0
    1.0837   -1.0323   -5.8241 C   0  0  0  0  0  4           0  0  0
  1  9  1  0     0  0
  2 10  2  0     0  0
  3 11  1  0     0  0
  3 19  1  0     0  0
  4 18  2  0     0  0
  5 18  1  0     0  0
  6 12  1  0     0  0
  6 13  1  0     0  0
  6 20  1  0     0  0
  7 14  1  0     0  0
  7 22  1  0     0  0
  7 23  1  0     0  0
  8 21  1  0     0  0
  8 24  1  0     0  0
  9 14  1  0     0  0
  9 17  2  0     0  0
 10 15  1  0     0  0
 10 16  1  0     0  0
 11 12  1  0     0  0
 11 14  2  0     0  0
 12 15  2  0     0  0
 13 16  2  0     0  0
 15 17  1  0     0  0
 16 18  1  0     0  0
 20 26  1  0     0  0
 20 27  1  0     0  0
 21 22  1  0     0  0
 21 25  1  0     0  0
 23 25  1  0     0  0
 24 28  1  0     0  0
 25 29  1  0     0  0
 26 27  1  0     0  0
 28 29  1  0     0  0
M  END
> <standard_type>
pIC50

> <# Confs.>
25

> <canonical_smiles>
COc1c(N2C[C@@H]3CCCN[C@@H]3C2)c(F)cc4c(=O)c(C(O)=O)cn(C5CC5)c14

> <standard_relation>
=

> <Publication_ID>
nan

> <predicted_activity_value>
nan

> <actual_activity_value>
-2.110589710299249

> <Compound>
Moxifloxacin

> <standard_units>
uM

> hash
4544010511512484446

$$$$
34
XXILIB    08252103503D 0   0.00000     0.00000

 29 33  0     1  0            999 V2000
   -2.8113   -0.1528   -2.3205 F   0  0  0  0  0  1           0  0  0
   -4.0930   -0.2862    2.4401 O   0  0  0  0  0  2           0  0  0
    1.3663    0.0000   -0.0000 O   0  0  0  0  0  2           0  0  0
   -2.4012   -0.1618    6.1077 O   0  0  0  0  0  2           0  0  0
   -4.1095    0.7171    4.8848 O   0  0  0  0  0  2           0  0  0
   -0.0429    0.1037    2.5317 N   0  0  2  0  0  3           0  0  0
   -0.0256    0.1254   -2.4688 N   0  0  2  0  0  3           0  0  0
    2.7725    0.1380   -3.7414 N   0  0  0  0  0  3           0  0  0
   -2.0785   -0.1250   -1.1957 C   0  0  0  0  0  4           0  0  0
   -2.8792   -0.1178    2.4699 C   0  0  0  0  0  4           0  0  0
    0.0000    0.0000    0.0000 C   0  0  0  0  0  4           0  0  0
   -0.6771    0.0000    1.2515 C   0  0  0  0  0  4           0  0  0
   -0.8237    0.1829    3.6747 C   0  0  0  0  0  4           0  0  0
   -0.6814    0.0017   -1.2546 C   0  0  0  0  0  4           0  0  0
   -2.0841   -0.1024    1.2153 C   0  0  0  0  0  4           0  0  0
   -2.1583    0.0873    3.7566 C   0  0  0  0  0  4           0  0  0
   -2.7746   -0.1845    0.0064 C   0  0  0  0  0  4           0  0  0
   -2.8731    0.1894    5.0367 C   0  0  0  0  0  4           0  0  0
    1.9760   -1.2883   -0.0000 C   0  0  0  0  0  4           0  0  0
    1.4028    0.2705    2.6996 C   0  0  1  0  0  4           0  0  0
    1.5263    0.8196   -4.1098 C   0  0  2  0  0  4           0  0  0
    0.7995    1.2761   -2.8342 C   0  0  0  0  0  4           0  0  0
   -0.0998   -0.8671   -3.5386 C   0  0  0  0  0  4           0  0  0
    3.3704   -0.5479   -4.8829 C   0  0  0  0  0  4           0  0  0
    0.4963   -0.1259   -4.7461 C   0  0  2  0  0  4           0  0  0
    2.1449    1.4529    2.1295 C   0  0  0  0  0  4           0  0  0
    1.9819    1.3210    3.6131 C   0  0  0  0  0  4           0  0  0
    2.4313   -1.6231   -5.4212 C   0  0  0  0  0  4           0  0  0
    1.0837   -1.0323   -5.8241 C   0  0  0  0  0  4           0  0  0
  1  9  1  0     0  0
  2 10  2  0     0  0
  3 11  1  0     0  0
  3 19  1  0     0  0
  4 18  2  0     0  0
  5 18  1  0     0  0
  6 12  1  0     0  0
  6 13  1  0     0  0
  6 20  1  0     0  0
  7 14  1  0     0  0
  7 22  1  0     0  0
  7 23  1  0     0  0
  8 21  1  0     0  0
  8 24  1  0     0  0
  9 14  1  0     0  0
  9 17  2  0     0  0
 10 15  1  0     0  0
 10 16  1  0     0  0
 11 12  1  0     0  0
 11 14  2  0     0  0
 12 15  2  0     0  0
 13 16  2  0     0  0
 15 17  1  0     0  0
 16 18  1  0     0  0
 20 26  1  0     0  0
 20 27  1  0     0  0
 21 22  1  0     0  0
 21 25  1  0     0  0
 23 25  1  0     0  0
 24 28  1  0     0  0
 25 29  1  0     0  0
 26 27  1  0     0  0
 28 29  1  0     0  0
M  END
> <standard_type>
pIC50

> <# Confs.>
25

> <canonical_smiles>
COc1c(N2C[C@@H]3CCCN[C@@H]3C2)c(F)cc4c(=O)c(C(O)=O)cn(C5CC5)c14

> <standard_relation>
=

> <Publication_ID>
nan

> <predicted_activity_value>
nan

> <actual_activity_value>
-2.110589710299249

> <Compound>
Moxifloxacin

> <standard_units>
uM

> hash
4544010511512484446

$$$$
34
XXILIB    08252103503D 0   0.00000     0.00000

 29 33  0     1  0            999 V2000
   -2.8113   -0.1528   -2.3205 F   0  0  0  0  0  1           0  0  0
   -4.0930   -0.2862    2.4401 O   0  0  0  0  0  2           0  0  0
    1.3663    0.0000   -0.0000 O   0  0  0  0  0  2           0  0  0
   -4.0053    0.6350    5.1485 O   0  0  0  0  0  2           0  0  0
   -2.1284   -0.2680    6.0695 O   0  0  0  0  0  2           0  0  0
   -0.0429    0.1037    2.5317 N   0  0  2  0  0  3           0  0  0
   -0.0256    0.1254   -2.4688 N   0  0  2  0  0  3           0  0  0
    2.7725    0.1380   -3.7414 N   0  0  0  0  0  3           0  0  0
   -2.0785   -0.1250   -1.1957 C   0  0  0  0  0  4           0  0  0
   -2.8792   -0.1178    2.4699 C   0  0  0  0  0  4           0  0  0
    0.0000    0.0000    0.0000 C   0  0  0  0  0  4           0  0  0
   -0.6771    0.0000    1.2515 C   0  0  0  0  0  4           0  0  0
   -0.8237    0.1829    3.6747 C   0  0  0  0  0  4           0  0  0
   -0.6814    0.0017   -1.2546 C   0  0  0  0  0  4           0  0  0
   -2.0841   -0.1024    1.2153 C   0  0  0  0  0  4           0  0  0
   -2.1583    0.0873    3.7566 C   0  0  0  0  0  4           0  0  0
   -2.7746   -0.1845    0.0064 C   0  0  0  0  0  4           0  0  0
   -2.8731    0.1894    5.0367 C   0  0  0  0  0  4           0  0  0
    1.9760   -1.1157   -0.6441 C   0  0  0  0  0  4           0  0  0
    1.4028    0.2705    2.6996 C   0  0  1  0  0  4           0  0  0
    1.5263    0.8196   -4.1098 C   0  0  2  0  0  4           0  0  0
    0.7995    1.2761   -2.8342 C   0  0  0  0  0  4           0  0  0
   -0.0998   -0.8671   -3.5386 C   0  0  0  0  0  4           0  0  0
    3.3704   -0.5479   -4.8829 C   0  0  0  0  0  4           0  0  0
    0.4963   -0.1259   -4.7461 C   0  0  2  0  0  4           0  0  0
    2.1362   -0.2592    3.9059 C   0  0  0  0  0  4           0  0  0
    2.3585   -0.8877    2.5640 C   0  0  0  0  0  4           0  0  0
    2.4313   -1.6231   -5.4212 C   0  0  0  0  0  4           0  0  0
    1.0837   -1.0323   -5.8241 C   0  0  0  0  0  4           0  0  0
  1  9  1  0     0  0
  2 10  2  0     0  0
  3 11  1  0     0  0
  3 19  1  0     0  0
  4 18  2  0     0  0
  5 18  1  0     0  0
  6 12  1  0     0  0
  6 13  1  0     0  0
  6 20  1  0     0  0
  7 14  1  0     0  0
  7 22  1  0     0  0
  7 23  1  0     0  0
  8 21  1  0     0  0
  8 24  1  0     0  0
  9 14  1  0     0  0
  9 17  2  0     0  0
 10 15  1  0     0  0
 10 16  1  0     0  0
 11 12  1  0     0  0
 11 14  2  0     0  0
 12 15  2  0     0  0
 13 16  2  0     0  0
 15 17  1  0     0  0
 16 18  1  0     0  0
 20 26  1  0     0  0
 20 27  1  0     0  0
 21 22  1  0     0  0
 21 25  1  0     0  0
 23 25  1  0     0  0
 24 28  1  0     0  0
 25 29  1  0     0  0
 26 27  1  0     0  0
 28 29  1  0     0  0
M  END
> <standard_type>
pIC50

> <# Confs.>
25

> <canonical_smiles>
COc1c(N2C[C@@H]3CCCN[C@@H]3C2)c(F)cc4c(=O)c(C(O)=O)cn(C5CC5)c14

> <standard_relation>
=

> <Publication_ID>
nan

> <predicted_activity_value>
nan

> <actual_activity_value>
-2.110589710299249

> <Compound>
Moxifloxacin

> <standard_units>
uM

> hash
4544010511512484446

$$$$
34
XXILIB    08252103503D 0   0.00000     0.00000

 29 33  0     1  0            999 V2000
   -2.8113   -0.1528   -2.3205 F   0  0  0  0  0  1           0  0  0
   -4.0930   -0.2862    2.4401 O   0  0  0  0  0  2           0  0  0
    1.3663    0.0000   -0.0000 O   0  0  0  0  0  2           0  0  0
   -2.4012   -0.1618    6.1077 O   0  0  0  0  0  2           0  0  0
   -4.1095    0.7171    4.8848 O   0  0  0  0  0  2           0  0  0
   -0.0429    0.1037    2.5317 N   0  0  2  0  0  3           0  0  0
   -0.0256    0.1254   -2.4688 N   0  0  2  0  0  3           0  0  0
    2.7725    0.1380   -3.7414 N   0  0  0  0  0  3           0  0  0
   -2.0785   -0.1250   -1.1957 C   0  0  0  0  0  4           0  0  0
   -2.8792   -0.1178    2.4699 C   0  0  0  0  0  4           0  0  0
    0.0000    0.0000    0.0000 C   0  0  0  0  0  4           0  0  0
   -0.6771    0.0000    1.2515 C   0  0  0  0  0  4           0  0  0
   -0.8237    0.1829    3.6747 C   0  0  0  0  0  4           0  0  0
   -0.6814    0.0017   -1.2546 C   0  0  0  0  0  4           0  0  0
   -2.0841   -0.1024    1.2153 C   0  0  0  0  0  4           0  0  0
   -2.1583    0.0873    3.7566 C   0  0  0  0  0  4           0  0  0
   -2.7746   -0.1845    0.0064 C   0  0  0  0  0  4           0  0  0
   -2.8731    0.1894    5.0367 C   0  0  0  0  0  4           0  0  0
    1.9760   -1.1157   -0.6441 C   0  0  0  0  0  4           0  0  0
    1.4028    0.2705    2.6996 C   0  0  1  0  0  4           0  0  0
    1.5263    0.8196   -4.1098 C   0  0  2  0  0  4           0  0  0
    0.7995    1.2761   -2.8342 C   0  0  0  0  0  4           0  0  0
   -0.0998   -0.8671   -3.5386 C   0  0  0  0  0  4           0  0  0
    3.3704   -0.5479   -4.8829 C   0  0  0  0  0  4           0  0  0
    0.4963   -0.1259   -4.7461 C   0  0  2  0  0  4           0  0  0
    2.1362   -0.2592    3.9059 C   0  0  0  0  0  4           0  0  0
    2.3585   -0.8877    2.5640 C   0  0  0  0  0  4           0  0  0
    2.4313   -1.6231   -5.4212 C   0  0  0  0  0  4           0  0  0
    1.0837   -1.0323   -5.8241 C   0  0  0  0  0  4           0  0  0
  1  9  1  0     0  0
  2 10  2  0     0  0
  3 11  1  0     0  0
  3 19  1  0     0  0
  4 18  2  0     0  0
  5 18  1  0     0  0
  6 12  1  0     0  0
  6 13  1  0     0  0
  6 20  1  0     0  0
  7 14  1  0     0  0
  7 22  1  0     0  0
  7 23  1  0     0  0
  8 21  1  0     0  0
  8 24  1  0     0  0
  9 14  1  0     0  0
  9 17  2  0     0  0
 10 15  1  0     0  0
 10 16  1  0     0  0
 11 12  1  0     0  0
 11 14  2  0     0  0
 12 15  2  0     0  0
 13 16  2  0     0  0
 15 17  1  0     0  0
 16 18  1  0     0  0
 20 26  1  0     0  0
 20 27  1  0     0  0
 21 22  1  0     0  0
 21 25  1  0     0  0
 23 25  1  0     0  0
 24 28  1  0     0  0
 25 29  1  0     0  0
 26 27  1  0     0  0
 28 29  1  0     0  0
M  END
> <standard_type>
pIC50

> <# Confs.>
25

> <canonical_smiles>
COc1c(N2C[C@@H]3CCCN[C@@H]3C2)c(F)cc4c(=O)c(C(O)=O)cn(C5CC5)c14

> <standard_relation>
=

> <Publication_ID>
nan

> <predicted_activity_value>
nan

> <actual_activity_value>
-2.110589710299249

> <Compound>
Moxifloxacin

> <standard_units>
uM

> hash
4544010511512484446

$$$$
34
XXILIB    08252103503D 0   0.00000     0.00000

 29 33  0     1  0            999 V2000
   -2.8113   -0.1528   -2.3205 F   0  0  0  0  0  1           0  0  0
   -4.0930   -0.2862    2.4401 O   0  0  0  0  0  2           0  0  0
    1.3663    0.0000   -0.0000 O   0  0  0  0  0  2           0  0  0
   -4.0053    0.6350    5.1485 O   0  0  0  0  0  2           0  0  0
   -2.1284   -0.2680    6.0695 O   0  0  0  0  0  2           0  0  0
   -0.0429    0.1037    2.5317 N   0  0  2  0  0  3           0  0  0
   -0.0256    0.1254   -2.4688 N   0  0  2  0  0  3           0  0  0
   -0.5134    0.5490   -5.4741 N   0  0  0  0  0  3           0  0  0
   -2.0785   -0.1250   -1.1957 C   0  0  0  0  0  4           0  0  0
   -2.8792   -0.1178    2.4699 C   0  0  0  0  0  4           0  0  0
    0.0000    0.0000    0.0000 C   0  0  0  0  0  4           0  0  0
   -0.6771    0.0000    1.2515 C   0  0  0  0  0  4           0  0  0
   -0.8237    0.1829    3.6747 C   0  0  0  0  0  4           0  0  0
   -0.6814    0.0017   -1.2546 C   0  0  0  0  0  4           0  0  0
   -2.0841   -0.1024    1.2153 C   0  0  0  0  0  4           0  0  0
   -2.1583    0.0873    3.7566 C   0  0  0  0  0  4           0  0  0
   -2.7746   -0.1845    0.0064 C   0  0  0  0  0  4           0  0  0
   -2.8731    0.1894    5.0367 C   0  0  0  0  0  4           0  0  0
    1.9760   -1.2883   -0.0000 C   0  0  0  0  0  4           0  0  0
    1.4028    0.2705    2.6996 C   0  0  1  0  0  4           0  0  0
    0.5378   -0.1695   -4.7445 C   0  0  2  0  0  4           0  0  0
   -0.0806   -0.8799   -3.5293 C   0  0  0  0  0  4           0  0  0
    0.8188    1.2634   -2.8253 C   0  0  0  0  0  4           0  0  0
    0.0455    1.4532   -6.4746 C   0  0  0  0  0  4           0  0  0
    1.5542    0.7735   -4.0831 C   0  0  2  0  0  4           0  0  0
    2.1449    1.4529    2.1295 C   0  0  0  0  0  4           0  0  0
    1.9819    1.3210    3.6131 C   0  0  0  0  0  4           0  0  0
    0.9195    2.5161   -5.8157 C   0  0  0  0  0  4           0  0  0
    2.0475    1.8838   -5.0063 C   0  0  0  0  0  4           0  0  0
  1  9  1  0     0  0
  2 10  2  0     0  0
  3 11  1  0     0  0
  3 19  1  0     0  0
  4 18  2  0     0  0
  5 18  1  0     0  0
  6 12  1  0     0  0
  6 13  1  0     0  0
  6 20  1  0     0  0
  7 14  1  0     0  0
  7 22  1  0     0  0
  7 23  1  0     0  0
  8 21  1  0     0  0
  8 24  1  0     0  0
  9 14  1  0     0  0
  9 17  2  0     0  0
 10 15  1  0     0  0
 10 16  1  0     0  0
 11 12  1  0     0  0
 11 14  2  0     0  0
 12 15  2  0     0  0
 13 16  2  0     0  0
 15 17  1  0     0  0
 16 18  1  0     0  0
 20 26  1  0     0  0
 20 27  1  0     0  0
 21 22  1  0     0  0
 21 25  1  0     0  0
 23 25  1  0     0  0
 24 28  1  0     0  0
 25 29  1  0     0  0
 26 27  1  0     0  0
 28 29  1  0     0  0
M  END
> <standard_type>
pIC50

> <# Confs.>
25

> <canonical_smiles>
COc1c(N2C[C@@H]3CCCN[C@@H]3C2)c(F)cc4c(=O)c(C(O)=O)cn(C5CC5)c14

> <standard_relation>
=

> <Publication_ID>
nan

> <predicted_activity_value>
nan

> <actual_activity_value>
-2.110589710299249

> <Compound>
Moxifloxacin

> <standard_units>
uM

> hash
4544010511512484446

$$$$
34
XXILIB    08252103503D 0   0.00000     0.00000

 29 33  0     1  0            999 V2000
   -2.8113   -0.1528   -2.3205 F   0  0  0  0  0  1           0  0  0
   -4.0930   -0.2862    2.4401 O   0  0  0  0  0  2           0  0  0
    1.3663    0.0000   -0.0000 O   0  0  0  0  0  2           0  0  0
   -2.4012   -0.1618    6.1077 O   0  0  0  0  0  2           0  0  0
   -4.1095    0.7171    4.8848 O   0  0  0  0  0  2           0  0  0
   -0.0429    0.1037    2.5317 N   0  0  2  0  0  3           0  0  0
   -0.0256    0.1254   -2.4688 N   0  0  2  0  0  3           0  0  0
   -0.5134    0.5490   -5.4741 N   0  0  0  0  0  3           0  0  0
   -2.0785   -0.1250   -1.1957 C   0  0  0  0  0  4           0  0  0
   -2.8792   -0.1178    2.4699 C   0  0  0  0  0  4           0  0  0
    0.0000    0.0000    0.0000 C   0  0  0  0  0  4           0  0  0
   -0.6771    0.0000    1.2515 C   0  0  0  0  0  4           0  0  0
   -0.8237    0.1829    3.6747 C   0  0  0  0  0  4           0  0  0
   -0.6814    0.0017   -1.2546 C   0  0  0  0  0  4           0  0  0
   -2.0841   -0.1024    1.2153 C   0  0  0  0  0  4           0  0  0
   -2.1583    0.0873    3.7566 C   0  0  0  0  0  4           0  0  0
   -2.7746   -0.1845    0.0064 C   0  0  0  0  0  4           0  0  0
   -2.8731    0.1894    5.0367 C   0  0  0  0  0  4           0  0  0
    1.9760   -1.2883   -0.0000 C   0  0  0  0  0  4           0  0  0
    1.4028    0.2705    2.6996 C   0  0  1  0  0  4           0  0  0
    0.5378   -0.1695   -4.7445 C   0  0  2  0  0  4           0  0  0
   -0.0806   -0.8799   -3.5293 C   0  0  0  0  0  4           0  0  0
    0.8188    1.2634   -2.8253 C   0  0  0  0  0  4           0  0  0
    0.0455    1.4532   -6.4746 C   0  0  0  0  0  4           0  0  0
    1.5542    0.7735   -4.0831 C   0  0  2  0  0  4           0  0  0
    2.1449    1.4529    2.1295 C   0  0  0  0  0  4           0  0  0
    1.9819    1.3210    3.6131 C   0  0  0  0  0  4           0  0  0
    0.9195    2.5161   -5.8157 C   0  0  0  0  0  4           0  0  0
    2.0475    1.8838   -5.0063 C   0  0  0  0  0  4           0  0  0
  1  9  1  0     0  0
  2 10  2  0     0  0
  3 11  1  0     0  0
  3 19  1  0     0  0
  4 18  2  0     0  0
  5 18  1  0     0  0
  6 12  1  0     0  0
  6 13  1  0     0  0
  6 20  1  0     0  0
  7 14  1  0     0  0
  7 22  1  0     0  0
  7 23  1  0     0  0
  8 21  1  0     0  0
  8 24  1  0     0  0
  9 14  1  0     0  0
  9 17  2  0     0  0
 10 15  1  0     0  0
 10 16  1  0     0  0
 11 12  1  0     0  0
 11 14  2  0     0  0
 12 15  2  0     0  0
 13 16  2  0     0  0
 15 17  1  0     0  0
 16 18  1  0     0  0
 20 26  1  0     0  0
 20 27  1  0     0  0
 21 22  1  0     0  0
 21 25  1  0     0  0
 23 25  1  0     0  0
 24 28  1  0     0  0
 25 29  1  0     0  0
 26 27  1  0     0  0
 28 29  1  0     0  0
M  END
> <standard_type>
pIC50

> <# Confs.>
25

> <canonical_smiles>
COc1c(N2C[C@@H]3CCCN[C@@H]3C2)c(F)cc4c(=O)c(C(O)=O)cn(C5CC5)c14

> <standard_relation>
=

> <Publication_ID>
nan

> <predicted_activity_value>
nan

> <actual_activity_value>
-2.110589710299249

> <Compound>
Moxifloxacin

> <standard_units>
uM

> hash
4544010511512484446

$$$$
34
XXILIB    08252103503D 0   0.00000     0.00000

 29 33  0     1  0            999 V2000
   -2.8113   -0.1528   -2.3205 F   0  0  0  0  0  1           0  0  0
   -4.0930   -0.2862    2.4401 O   0  0  0  0  0  2           0  0  0
    1.3663    0.0000   -0.0000 O   0  0  0  0  0  2           0  0  0
   -4.0053    0.6350    5.1485 O   0  0  0  0  0  2           0  0  0
   -2.1284   -0.2680    6.0695 O   0  0  0  0  0  2           0  0  0
   -0.0429    0.1037    2.5317 N   0  0  2  0  0  3           0  0  0
   -0.0256    0.1254   -2.4688 N   0  0  2  0  0  3           0  0  0
   -0.5134    0.5490   -5.4741 N   0  0  0  0  0  3           0  0  0
   -2.0785   -0.1250   -1.1957 C   0  0  0  0  0  4           0  0  0
   -2.8792   -0.1178    2.4699 C   0  0  0  0  0  4           0  0  0
    0.0000    0.0000    0.0000 C   0  0  0  0  0  4           0  0  0
   -0.6771    0.0000    1.2515 C   0  0  0  0  0  4           0  0  0
   -0.8237    0.1829    3.6747 C   0  0  0  0  0  4           0  0  0
   -0.6814    0.0017   -1.2546 C   0  0  0  0  0  4           0  0  0
   -2.0841   -0.1024    1.2153 C   0  0  0  0  0  4           0  0  0
   -2.1583    0.0873    3.7566 C   0  0  0  0  0  4           0  0  0
   -2.7746   -0.1845    0.0064 C   0  0  0  0  0  4           0  0  0
   -2.8731    0.1894    5.0367 C   0  0  0  0  0  4           0  0  0
    1.9760   -1.1157   -0.6441 C   0  0  0  0  0  4           0  0  0
    1.4028    0.2705    2.6996 C   0  0  1  0  0  4           0  0  0
    0.5378   -0.1695   -4.7445 C   0  0  2  0  0  4           0  0  0
   -0.0806   -0.8799   -3.5293 C   0  0  0  0  0  4           0  0  0
    0.8188    1.2634   -2.8253 C   0  0  0  0  0  4           0  0  0
    0.0455    1.4532   -6.4746 C   0  0  0  0  0  4           0  0  0
    1.5542    0.7735   -4.0831 C   0  0  2  0  0  4           0  0  0
    2.1362   -0.2592    3.9059 C   0  0  0  0  0  4           0  0  0
    2.3585   -0.8877    2.5640 C   0  0  0  0  0  4           0  0  0
    0.9195    2.5161   -5.8157 C   0  0  0  0  0  4           0  0  0
    2.0475    1.8838   -5.0063 C   0  0  0  0  0  4           0  0  0
  1  9  1  0     0  0
  2 10  2  0     0  0
  3 11  1  0     0  0
  3 19  1  0     0  0
  4 18  2  0     0  0
  5 18  1  0     0  0
  6 12  1  0     0  0
  6 13  1  0     0  0
  6 20  1  0     0  0
  7 14  1  0     0  0
  7 22  1  0     0  0
  7 23  1  0     0  0
  8 21  1  0     0  0
  8 24  1  0     0  0
  9 14  1  0     0  0
  9 17  2  0     0  0
 10 15  1  0     0  0
 10 16  1  0     0  0
 11 12  1  0     0  0
 11 14  2  0     0  0
 12 15  2  0     0  0
 13 16  2  0     0  0
 15 17  1  0     0  0
 16 18  1  0     0  0
 20 26  1  0     0  0
 20 27  1  0     0  0
 21 22  1  0     0  0
 21 25  1  0     0  0
 23 25  1  0     0  0
 24 28  1  0     0  0
 25 29  1  0     0  0
 26 27  1  0     0  0
 28 29  1  0     0  0
M  END
> <standard_type>
pIC50

> <# Confs.>
25

> <canonical_smiles>
COc1c(N2C[C@@H]3CCCN[C@@H]3C2)c(F)cc4c(=O)c(C(O)=O)cn(C5CC5)c14

> <standard_relation>
=

> <Publication_ID>
nan

> <predicted_activity_value>
nan

> <actual_activity_value>
-2.110589710299249

> <Compound>
Moxifloxacin

> <standard_units>
uM

> hash
4544010511512484446

$$$$
34
XXILIB    08252103503D 0   0.00000     0.00000

 29 33  0     1  0            999 V2000
   -2.8113   -0.1528   -2.3205 F   0  0  0  0  0  1           0  0  0
   -4.0930   -0.2862    2.4401 O   0  0  0  0  0  2           0  0  0
    1.3663    0.0000   -0.0000 O   0  0  0  0  0  2           0  0  0
   -2.4012   -0.1618    6.1077 O   0  0  0  0  0  2           0  0  0
   -4.1095    0.7171    4.8848 O   0  0  0  0  0  2           0  0  0
   -0.0429    0.1037    2.5317 N   0  0  2  0  0  3           0  0  0
   -0.0256    0.1254   -2.4688 N   0  0  2  0  0  3           0  0  0
   -0.5134    0.5490   -5.4741 N   0  0  0  0  0  3           0  0  0
   -2.0785   -0.1250   -1.1957 C   0  0  0  0  0  4           0  0  0
   -2.8792   -0.1178    2.4699 C   0  0  0  0  0  4           0  0  0
    0.0000    0.0000    0.0000 C   0  0  0  0  0  4           0  0  0
   -0.6771    0.0000    1.2515 C   0  0  0  0  0  4           0  0  0
   -0.8237    0.1829    3.6747 C   0  0  0  0  0  4           0  0  0
   -0.6814    0.0017   -1.2546 C   0  0  0  0  0  4           0  0  0
   -2.0841   -0.1024    1.2153 C   0  0  0  0  0  4           0  0  0
   -2.1583    0.0873    3.7566 C   0  0  0  0  0  4           0  0  0
   -2.7746   -0.1845    0.0064 C   0  0  0  0  0  4           0  0  0
   -2.8731    0.1894    5.0367 C   0  0  0  0  0  4           0  0  0
    1.9760   -1.1157   -0.6441 C   0  0  0  0  0  4           0  0  0
    1.4028    0.2705    2.6996 C   0  0  1  0  0  4           0  0  0
    0.5378   -0.1695   -4.7445 C   0  0  2  0  0  4           0  0  0
   -0.0806   -0.8799   -3.5293 C   0  0  0  0  0  4           0  0  0
    0.8188    1.2634   -2.8253 C   0  0  0  0  0  4           0  0  0
    0.0455    1.4532   -6.4746 C   0  0  0  0  0  4           0  0  0
    1.5542    0.7735   -4.0831 C   0  0  2  0  0  4           0  0  0
    2.1362   -0.2592    3.9059 C   0  0  0  0  0  4           0  0  0
    2.3585   -0.8877    2.5640 C   0  0  0  0  0  4           0  0  0
    0.9195    2.5161   -5.8157 C   0  0  0  0  0  4           0  0  0
    2.0475    1.8838   -5.0063 C   0  0  0  0  0  4           0  0  0
  1  9  1  0     0  0
  2 10  2  0     0  0
  3 11  1  0     0  0
  3 19  1  0     0  0
  4 18  2  0     0  0
  5 18  1  0     0  0
  6 12  1  0     0  0
  6 13  1  0     0  0
  6 20  1  0     0  0
  7 14  1  0     0  0
  7 22  1  0     0  0
  7 23  1  0     0  0
  8 21  1  0     0  0
  8 24  1  0     0  0
  9 14  1  0     0  0
  9 17  2  0     0  0
 10 15  1  0     0  0
 10 16  1  0     0  0
 11 12  1  0     0  0
 11 14  2  0     0  0
 12 15  2  0     0  0
 13 16  2  0     0  0
 15 17  1  0     0  0
 16 18  1  0     0  0
 20 26  1  0     0  0
 20 27  1  0     0  0
 21 22  1  0     0  0
 21 25  1  0     0  0
 23 25  1  0     0  0
 24 28  1  0     0  0
 25 29  1  0     0  0
 26 27  1  0     0  0
 28 29  1  0     0  0
M  END
> <standard_type>
pIC50

> <# Confs.>
25

> <canonical_smiles>
COc1c(N2C[C@@H]3CCCN[C@@H]3C2)c(F)cc4c(=O)c(C(O)=O)cn(C5CC5)c14

> <standard_relation>
=

> <Publication_ID>
nan

> <predicted_activity_value>
nan

> <actual_activity_value>
-2.110589710299249

> <Compound>
Moxifloxacin

> <standard_units>
uM

> hash
4544010511512484446

$$$$
34
XXILIB    08252103503D 0   0.00000     0.00000

 29 33  0     1  0            999 V2000
   -2.8113   -0.1528   -2.3205 F   0  0  0  0  0  1           0  0  0
   -4.0930   -0.2862    2.4401 O   0  0  0  0  0  2           0  0  0
    1.3663   -0.0000    0.0000 O   0  0  0  0  0  2           0  0  0
   -4.0053    0.6350    5.1485 O   0  0  0  0  0  2           0  0  0
   -2.1284   -0.2680    6.0695 O   0  0  0  0  0  2           0  0  0
   -0.0429    0.1037    2.5317 N   0  0  2  0  0  3           0  0  0
   -0.0256    0.1254   -2.4688 N   0  0  2  0  0  3           0  0  0
    2.2808   -0.9351   -5.1196 N   0  0  0  0  0  3           0  0  0
   -2.0785   -0.1250   -1.1957 C   0  0  0  0  0  4           0  0  0
   -2.8792   -0.1178    2.4699 C   0  0  0  0  0  4           0  0  0
    0.0000    0.0000    0.0000 C   0  0  0  0  0  4           0  0  0
   -0.6771    0.0000    1.2515 C   0  0  0  0  0  4           0  0  0
   -0.8237    0.1829    3.6747 C   0  0  0  0  0  4           0  0  0
   -0.6814    0.0017   -1.2546 C   0  0  0  0  0  4           0  0  0
   -2.0841   -0.1024    1.2153 C   0  0  0  0  0  4           0  0  0
   -2.1583    0.0873    3.7566 C   0  0  0  0  0  4           0  0  0
   -2.7746   -0.1845    0.0064 C   0  0  0  0  0  4           0  0  0
   -2.8731    0.1894    5.0367 C   0  0  0  0  0  4           0  0  0
    1.9760    1.1157   -0.6441 C   0  0  0  0  0  4           0  0  0
    1.4028    0.2705    2.6996 C   0  0  1  0  0  4           0  0  0
    1.6076   -0.0868   -4.1446 C   0  0  2  0  0  4           0  0  0
    0.9841   -0.8186   -2.9456 C   0  0  0  0  0  4           0  0  0
   -0.2639    1.2162   -3.4137 C   0  0  0  0  0  4           0  0  0
    1.3772   -1.6957   -5.9782 C   0  0  0  0  0  4           0  0  0
    0.4500    0.7582   -4.6944 C   0  0  2  0  0  4           0  0  0
    2.1362   -0.2592    3.9059 C   0  0  0  0  0  4           0  0  0
    2.3585   -0.8877    2.5640 C   0  0  0  0  0  4           0  0  0
    0.3362   -0.8050   -6.6499 C   0  0  0  0  0  4           0  0  0
   -0.4788   -0.0491   -5.6084 C   0  0  0  0  0  4           0  0  0
  1  9  1  0     0  0
  2 10  2  0     0  0
  3 11  1  0     0  0
  3 19  1  0     0  0
  4 18  2  0     0  0
  5 18  1  0     0  0
  6 12  1  0     0  0
  6 13  1  0     0  0
  6 20  1  0     0  0
  7 14  1  0     0  0
  7 22  1  0     0  0
  7 23  1  0     0  0
  8 21  1  0     0  0
  8 24  1  0     0  0
  9 14  1  0     0  0
  9 17  2  0     0  0
 10 15  1  0     0  0
 10 16  1  0     0  0
 11 12  1  0     0  0
 11 14  2  0     0  0
 12 15  2  0     0  0
 13 16  2  0     0  0
 15 17  1  0     0  0
 16 18  1  0     0  0
 20 26  1  0     0  0
 20 27  1  0     0  0
 21 22  1  0     0  0
 21 25  1  0     0  0
 23 25  1  0     0  0
 24 28  1  0     0  0
 25 29  1  0     0  0
 26 27  1  0     0  0
 28 29  1  0     0  0
M  END
> <standard_type>
pIC50

> <# Confs.>
25

> <canonical_smiles>
COc1c(N2C[C@@H]3CCCN[C@@H]3C2)c(F)cc4c(=O)c(C(O)=O)cn(C5CC5)c14

> <standard_relation>
=

> <Publication_ID>
nan

> <predicted_activity_value>
nan

> <actual_activity_value>
-2.110589710299249

> <Compound>
Moxifloxacin

> <standard_units>
uM

> hash
4544010511512484446

$$$$
34
XXILIB    08252103503D 0   0.00000     0.00000

 29 33  0     1  0            999 V2000
   -2.8113   -0.1528   -2.3205 F   0  0  0  0  0  1           0  0  0
   -4.0930   -0.2862    2.4401 O   0  0  0  0  0  2           0  0  0
    1.3663   -0.0000    0.0000 O   0  0  0  0  0  2           0  0  0
   -2.4012   -0.1618    6.1077 O   0  0  0  0  0  2           0  0  0
   -4.1095    0.7171    4.8848 O   0  0  0  0  0  2           0  0  0
   -0.0429    0.1037    2.5317 N   0  0  2  0  0  3           0  0  0
   -0.0256    0.1254   -2.4688 N   0  0  2  0  0  3           0  0  0
    2.2808   -0.9351   -5.1196 N   0  0  0  0  0  3           0  0  0
   -2.0785   -0.1250   -1.1957 C   0  0  0  0  0  4           0  0  0
   -2.8792   -0.1178    2.4699 C   0  0  0  0  0  4           0  0  0
    0.0000    0.0000    0.0000 C   0  0  0  0  0  4           0  0  0
   -0.6771    0.0000    1.2515 C   0  0  0  0  0  4           0  0  0
   -0.8237    0.1829    3.6747 C   0  0  0  0  0  4           0  0  0
   -0.6814    0.0017   -1.2546 C   0  0  0  0  0  4           0  0  0
   -2.0841   -0.1024    1.2153 C   0  0  0  0  0  4           0  0  0
   -2.1583    0.0873    3.7566 C   0  0  0  0  0  4           0  0  0
   -2.7746   -0.1845    0.0064 C   0  0  0  0  0  4           0  0  0
   -2.8731    0.1894    5.0367 C   0  0  0  0  0  4           0  0  0
    1.9760    1.1157   -0.6441 C   0  0  0  0  0  4           0  0  0
    1.4028    0.2705    2.6996 C   0  0  1  0  0  4           0  0  0
    1.6076   -0.0868   -4.1446 C   0  0  2  0  0  4           0  0  0
    0.9841   -0.8186   -2.9456 C   0  0  0  0  0  4           0  0  0
   -0.2639    1.2162   -3.4137 C   0  0  0  0  0  4           0  0  0
    1.3772   -1.6957   -5.9782 C   0  0  0  0  0  4           0  0  0
    0.4500    0.7582   -4.6944 C   0  0  2  0  0  4           0  0  0
    2.1362   -0.2592    3.9059 C   0  0  0  0  0  4           0  0  0
    2.3585   -0.8877    2.5640 C   0  0  0  0  0  4           0  0  0
    0.3362   -0.8050   -6.6499 C   0  0  0  0  0  4           0  0  0
   -0.4788   -0.0491   -5.6084 C   0  0  0  0  0  4           0  0  0
  1  9  1  0     0  0
  2 10  2  0     0  0
  3 11  1  0     0  0
  3 19  1  0     0  0
  4 18  2  0     0  0
  5 18  1  0     0  0
  6 12  1  0     0  0
  6 13  1  0     0  0
  6 20  1  0     0  0
  7 14  1  0     0  0
  7 22  1  0     0  0
  7 23  1  0     0  0
  8 21  1  0     0  0
  8 24  1  0     0  0
  9 14  1  0     0  0
  9 17  2  0     0  0
 10 15  1  0     0  0
 10 16  1  0     0  0
 11 12  1  0     0  0
 11 14  2  0     0  0
 12 15  2  0     0  0
 13 16  2  0     0  0
 15 17  1  0     0  0
 16 18  1  0     0  0
 20 26  1  0     0  0
 20 27  1  0     0  0
 21 22  1  0     0  0
 21 25  1  0     0  0
 23 25  1  0     0  0
 24 28  1  0     0  0
 25 29  1  0     0  0
 26 27  1  0     0  0
 28 29  1  0     0  0
M  END
> <standard_type>
pIC50

> <# Confs.>
25

> <canonical_smiles>
COc1c(N2C[C@@H]3CCCN[C@@H]3C2)c(F)cc4c(=O)c(C(O)=O)cn(C5CC5)c14

> <standard_relation>
=

> <Publication_ID>
nan

> <predicted_activity_value>
nan

> <actual_activity_value>
-2.110589710299249

> <Compound>
Moxifloxacin

> <standard_units>
uM

> hash
4544010511512484446

$$$$
34
XXILIB    08252103503D 0   0.00000     0.00000

 29 33  0     1  0            999 V2000
   -2.8113   -0.1528   -2.3205 F   0  0  0  0  0  1           0  0  0
   -4.0930   -0.2862    2.4401 O   0  0  0  0  0  2           0  0  0
    1.3663    0.0000   -0.0000 O   0  0  0  0  0  2           0  0  0
   -3.5836   -0.6952    5.4900 O   0  0  0  0  0  2           0  0  0
   -2.6488    1.3754    5.6478 O   0  0  0  0  0  2           0  0  0
   -0.0429    0.1037    2.5317 N   0  0  2  0  0  3           0  0  0
   -0.0256    0.1254   -2.4688 N   0  0  2  0  0  3           0  0  0
    1.4922    1.9807   -5.2483 N   0  0  0  0  0  3           0  0  0
   -2.0785   -0.1250   -1.1957 C   0  0  0  0  0  4           0  0  0
   -2.8792   -0.1178    2.4699 C   0  0  0  0  0  4           0  0  0
    0.0000    0.0000    0.0000 C   0  0  0  0  0  4           0  0  0
   -0.6771   -0.0000    1.2515 C   0  0  0  0  0  4           0  0  0
   -0.8237    0.1829    3.6747 C   0  0  0  0  0  4           0  0  0
   -0.6814    0.0017   -1.2546 C   0  0  0  0  0  4           0  0  0
   -2.0841   -0.1024    1.2153 C   0  0  0  0  0  4           0  0  0
   -2.1583    0.0873    3.7566 C   0  0  0  0  0  4           0  0  0
   -2.7746   -0.1845    0.0064 C   0  0  0  0  0  4           0  0  0
   -2.8731    0.1894    5.0367 C   0  0  0  0  0  4           0  0  0
    1.9760   -1.2883   -0.0000 C   0  0  0  0  0  4           0  0  0
    1.4028    0.2705    2.6996 C   0  0  1  0  0  4           0  0  0
    0.6908    0.9988   -4.5291 C   0  0  2  0  0  4           0  0  0
    0.2515    1.4078   -3.1143 C   0  0  0  0  0  4           0  0  0
    0.4628   -1.0116   -3.2483 C   0  0  0  0  0  4           0  0  0
    2.8732    2.0830   -4.7850 C   0  0  0  0  0  4           0  0  0
    1.3559   -0.3688   -4.3200 C   0  0  2  0  0  4           0  0  0
    2.1449    1.4529    2.1295 C   0  0  0  0  0  4           0  0  0
    1.9819    1.3210    3.6131 C   0  0  0  0  0  4           0  0  0
    3.5694    0.7258   -4.7477 C   0  0  0  0  0  4           0  0  0
    2.8104   -0.2446   -3.8519 C   0  0  0  0  0  4           0  0  0
  1  9  1  0     0  0
  2 10  2  0     0  0
  3 11  1  0     0  0
  3 19  1  0     0  0
  4 18  2  0     0  0
  5 18  1  0     0  0
  6 12  1  0     0  0
  6 13  1  0     0  0
  6 20  1  0     0  0
  7 14  1  0     0  0
  7 22  1  0     0  0
  7 23  1  0     0  0
  8 21  1  0     0  0
  8 24  1  0     0  0
  9 14  1  0     0  0
  9 17  2  0     0  0
 10 15  1  0     0  0
 10 16  1  0     0  0
 11 12  1  0     0  0
 11 14  2  0     0  0
 12 15  2  0     0  0
 13 16  2  0     0  0
 15 17  1  0     0  0
 16 18  1  0     0  0
 20 26  1  0     0  0
 20 27  1  0     0  0
 21 22  1  0     0  0
 21 25  1  0     0  0
 23 25  1  0     0  0
 24 28  1  0     0  0
 25 29  1  0     0  0
 26 27  1  0     0  0
 28 29  1  0     0  0
M  END
> <standard_type>
pIC50

> <# Confs.>
25

> <canonical_smiles>
COc1c(N2C[C@@H]3CCCN[C@@H]3C2)c(F)cc4c(=O)c(C(O)=O)cn(C5CC5)c14

> <standard_relation>
=

> <Publication_ID>
nan

> <predicted_activity_value>
nan

> <actual_activity_value>
-2.110589710299249

> <Compound>
Moxifloxacin

> <standard_units>
uM

> hash
4544010511512484446

$$$$
34
XXILIB    08252103503D 0   0.00000     0.00000

 29 33  0     1  0            999 V2000
   -2.8113   -0.1528   -2.3205 F   0  0  0  0  0  1           0  0  0
   -4.0930   -0.2862    2.4401 O   0  0  0  0  0  2           0  0  0
    1.3663    0.0000   -0.0000 O   0  0  0  0  0  2           0  0  0
   -4.0053    0.6350    5.1485 O   0  0  0  0  0  2           0  0  0
   -2.1284   -0.2680    6.0695 O   0  0  0  0  0  2           0  0  0
   -0.0429    0.1037    2.5317 N   0  0  2  0  0  3           0  0  0
   -0.0256    0.1254   -2.4688 N   0  0  2  0  0  3           0  0  0
    2.1882    1.7646   -4.8944 N   0  0  0  0  0  3           0  0  0
   -2.0785   -0.1250   -1.1957 C   0  0  0  0  0  4           0  0  0
   -2.8792   -0.1178    2.4699 C   0  0  0  0  0  4           0  0  0
    0.0000    0.0000    0.0000 C   0  0  0  0  0  4           0  0  0
   -0.6771    0.0000    1.2515 C   0  0  0  0  0  4           0  0  0
   -0.8237    0.1829    3.6747 C   0  0  0  0  0  4           0  0  0
   -0.6814    0.0017   -1.2546 C   0  0  0  0  0  4           0  0  0
   -2.0841   -0.1024    1.2153 C   0  0  0  0  0  4           0  0  0
   -2.1583    0.0873    3.7566 C   0  0  0  0  0  4           0  0  0
   -2.7746   -0.1845    0.0064 C   0  0  0  0  0  4           0  0  0
   -2.8731    0.1894    5.0367 C   0  0  0  0  0  4           0  0  0
    1.9760   -1.2883   -0.0000 C   0  0  0  0  0  4           0  0  0
    1.4028    0.2705    2.6996 C   0  0  1  0  0  4           0  0  0
    1.0265    1.0821   -4.3393 C   0  0  2  0  0  4           0  0  0
    0.7989    1.2771   -2.8319 C   0  0  0  0  0  4           0  0  0
   -0.0842   -0.8791   -3.5302 C   0  0  0  0  0  4           0  0  0
    3.4660    1.1415   -4.5609 C   0  0  0  0  0  4           0  0  0
    1.0131   -0.4431   -4.5127 C   0  0  2  0  0  4           0  0  0
    2.0449    0.3772    4.0597 C   0  0  0  0  0  4           0  0  0
    2.2770   -0.8421    3.2203 C   0  0  0  0  0  4           0  0  0
    3.4870   -0.3457   -4.9014 C   0  0  0  0  0  4           0  0  0
    2.3663   -1.0802   -4.1769 C   0  0  0  0  0  4           0  0  0
  1  9  1  0     0  0
  2 10  2  0     0  0
  3 11  1  0     0  0
  3 19  1  0     0  0
  4 18  2  0     0  0
  5 18  1  0     0  0
  6 12  1  0     0  0
  6 13  1  0     0  0
  6 20  1  0     0  0
  7 14  1  0     0  0
  7 22  1  0     0  0
  7 23  1  0     0  0
  8 21  1  0     0  0
  8 24  1  0     0  0
  9 14  1  0     0  0
  9 17  2  0     0  0
 10 15  1  0     0  0
 10 16  1  0     0  0
 11 12  1  0     0  0
 11 14  2  0     0  0
 12 15  2  0     0  0
 13 16  2  0     0  0
 15 17  1  0     0  0
 16 18  1  0     0  0
 20 26  1  0     0  0
 20 27  1  0     0  0
 21 22  1  0     0  0
 21 25  1  0     0  0
 23 25  1  0     0  0
 24 28  1  0     0  0
 25 29  1  0     0  0
 26 27  1  0     0  0
 28 29  1  0     0  0
M  END
> <standard_type>
pIC50

> <# Confs.>
25

> <canonical_smiles>
COc1c(N2C[C@@H]3CCCN[C@@H]3C2)c(F)cc4c(=O)c(C(O)=O)cn(C5CC5)c14

> <standard_relation>
=

> <Publication_ID>
nan

> <predicted_activity_value>
nan

> <actual_activity_value>
-2.110589710299249

> <Compound>
Moxifloxacin

> <standard_units>
uM

> hash
4544010511512484446

$$$$
34
XXILIB    08252103503D 0   0.00000     0.00000

 29 33  0     1  0            999 V2000
   -2.8113   -0.1528   -2.3205 F   0  0  0  0  0  1           0  0  0
   -4.0930   -0.2862    2.4401 O   0  0  0  0  0  2           0  0  0
    1.3663    0.0000   -0.0000 O   0  0  0  0  0  2           0  0  0
   -3.5836   -0.6952    5.4900 O   0  0  0  0  0  2           0  0  0
   -2.6488    1.3754    5.6478 O   0  0  0  0  0  2           0  0  0
   -0.0429    0.1037    2.5317 N   0  0  2  0  0  3           0  0  0
   -0.0256    0.1254   -2.4688 N   0  0  2  0  0  3           0  0  0
    1.5992   -1.1366   -5.5083 N   0  0  0  0  0  3           0  0  0
   -2.0785   -0.1250   -1.1957 C   0  0  0  0  0  4           0  0  0
   -2.8792   -0.1178    2.4699 C   0  0  0  0  0  4           0  0  0
    0.0000    0.0000    0.0000 C   0  0  0  0  0  4           0  0  0
   -0.6771   -0.0000    1.2515 C   0  0  0  0  0  4           0  0  0
   -0.8237    0.1829    3.6747 C   0  0  0  0  0  4           0  0  0
   -0.6814    0.0017   -1.2546 C   0  0  0  0  0  4           0  0  0
   -2.0841   -0.1024    1.2153 C   0  0  0  0  0  4           0  0  0
   -2.1583    0.0873    3.7566 C   0  0  0  0  0  4           0  0  0
   -2.7746   -0.1845    0.0064 C   0  0  0  0  0  4           0  0  0
   -2.8731    0.1894    5.0367 C   0  0  0  0  0  4           0  0  0
    1.9760   -1.2883   -0.0000 C   0  0  0  0  0  4           0  0  0
    1.4028    0.2705    2.6996 C   0  0  1  0  0  4           0  0  0
    1.3619   -0.3508   -4.3042 C   0  0  2  0  0  4           0  0  0
    0.4653   -1.0120   -3.2454 C   0  0  0  0  0  4           0  0  0
    0.2553    1.4077   -3.1138 C   0  0  0  0  0  4           0  0  0
    0.4613   -1.1931   -6.4216 C   0  0  0  0  0  4           0  0  0
    0.7057    1.0185   -4.5298 C   0  0  2  0  0  4           0  0  0
    2.1449    1.4529    2.1295 C   0  0  0  0  0  4           0  0  0
    1.9819    1.3210    3.6131 C   0  0  0  0  0  4           0  0  0
   -0.0688    0.1955   -6.7666 C   0  0  0  0  0  4           0  0  0
   -0.4749    0.9460   -5.5048 C   0  0  0  0  0  4           0  0  0
  1  9  1  0     0  0
  2 10  2  0     0  0
  3 11  1  0     0  0
  3 19  1  0     0  0
  4 18  2  0     0  0
  5 18  1  0     0  0
  6 12  1  0     0  0
  6 13  1  0     0  0
  6 20  1  0     0  0
  7 14  1  0     0  0
  7 22  1  0     0  0
  7 23  1  0     0  0
  8 21  1  0     0  0
  8 24  1  0     0  0
  9 14  1  0     0  0
  9 17  2  0     0  0
 10 15  1  0     0  0
 10 16  1  0     0  0
 11 12  1  0     0  0
 11 14  2  0     0  0
 12 15  2  0     0  0
 13 16  2  0     0  0
 15 17  1  0     0  0
 16 18  1  0     0  0
 20 26  1  0     0  0
 20 27  1  0     0  0
 21 22  1  0     0  0
 21 25  1  0     0  0
 23 25  1  0     0  0
 24 28  1  0     0  0
 25 29  1  0     0  0
 26 27  1  0     0  0
 28 29  1  0     0  0
M  END
> <standard_type>
pIC50

> <# Confs.>
25

> <canonical_smiles>
COc1c(N2C[C@@H]3CCCN[C@@H]3C2)c(F)cc4c(=O)c(C(O)=O)cn(C5CC5)c14

> <standard_relation>
=

> <Publication_ID>
nan

> <predicted_activity_value>
nan

> <actual_activity_value>
-2.110589710299249

> <Compound>
Moxifloxacin

> <standard_units>
uM

> hash
4544010511512484446

$$$$
34
XXILIB    08252103503D 0   0.00000     0.00000

 29 33  0     1  0            999 V2000
   -2.8113   -0.1528   -2.3205 F   0  0  0  0  0  1           0  0  0
   -4.0930   -0.2862    2.4401 O   0  0  0  0  0  2           0  0  0
    1.3663   -0.0000    0.0000 O   0  0  0  0  0  2           0  0  0
   -4.0053    0.6350    5.1485 O   0  0  0  0  0  2           0  0  0
   -2.1284   -0.2680    6.0695 O   0  0  0  0  0  2           0  0  0
   -0.0429    0.1037    2.5317 N   0  0  2  0  0  3           0  0  0
   -0.0256    0.1254   -2.4688 N   0  0  2  0  0  3           0  0  0
    2.0400    1.8428   -3.9632 N   0  0  0  0  0  3           0  0  0
   -2.0785   -0.1250   -1.1957 C   0  0  0  0  0  4           0  0  0
   -2.8792   -0.1178    2.4699 C   0  0  0  0  0  4           0  0  0
    0.0000    0.0000    0.0000 C   0  0  0  0  0  4           0  0  0
   -0.6771    0.0000    1.2515 C   0  0  0  0  0  4           0  0  0
   -0.8237    0.1829    3.6747 C   0  0  0  0  0  4           0  0  0
   -0.6814    0.0017   -1.2546 C   0  0  0  0  0  4           0  0  0
   -2.0841   -0.1024    1.2153 C   0  0  0  0  0  4           0  0  0
   -2.1583    0.0873    3.7566 C   0  0  0  0  0  4           0  0  0
   -2.7746   -0.1845    0.0064 C   0  0  0  0  0  4           0  0  0
   -2.8731    0.1894    5.0367 C   0  0  0  0  0  4           0  0  0
    1.9760    1.1157   -0.6441 C   0  0  0  0  0  4           0  0  0
    1.4028    0.2705    2.6996 C   0  0  1  0  0  4           0  0  0
    0.8793    1.0775   -4.4329 C   0  0  2  0  0  4           0  0  0
   -0.2656    1.2136   -3.4158 C   0  0  0  0  0  4           0  0  0
    0.9660   -0.8292   -2.9591 C   0  0  0  0  0  4           0  0  0
    3.2370    1.5403   -4.7420 C   0  0  0  0  0  4           0  0  0
    1.1277   -0.4384   -4.4370 C   0  0  2  0  0  4           0  0  0
    2.1362   -0.2592    3.9059 C   0  0  0  0  0  4           0  0  0
    2.3585   -0.8877    2.5640 C   0  0  0  0  0  4           0  0  0
    3.6088    0.0663   -4.6130 C   0  0  0  0  0  4           0  0  0
    2.4629   -0.8366   -5.0593 C   0  0  0  0  0  4           0  0  0
  1  9  1  0     0  0
  2 10  2  0     0  0
  3 11  1  0     0  0
  3 19  1  0     0  0
  4 18  2  0     0  0
  5 18  1  0     0  0
  6 12  1  0     0  0
  6 13  1  0     0  0
  6 20  1  0     0  0
  7 14  1  0     0  0
  7 22  1  0     0  0
  7 23  1  0     0  0
  8 21  1  0     0  0
  8 24  1  0     0  0
  9 14  1  0     0  0
  9 17  2  0     0  0
 10 15  1  0     0  0
 10 16  1  0     0  0
 11 12  1  0     0  0
 11 14  2  0     0  0
 12 15  2  0     0  0
 13 16  2  0     0  0
 15 17  1  0     0  0
 16 18  1  0     0  0
 20 26  1  0     0  0
 20 27  1  0     0  0
 21 22  1  0     0  0
 21 25  1  0     0  0
 23 25  1  0     0  0
 24 28  1  0     0  0
 25 29  1  0     0  0
 26 27  1  0     0  0
 28 29  1  0     0  0
M  END
> <standard_type>
pIC50

> <# Confs.>
25

> <canonical_smiles>
COc1c(N2C[C@@H]3CCCN[C@@H]3C2)c(F)cc4c(=O)c(C(O)=O)cn(C5CC5)c14

> <standard_relation>
=

> <Publication_ID>
nan

> <predicted_activity_value>
nan

> <actual_activity_value>
-2.110589710299249

> <Compound>
Moxifloxacin

> <standard_units>
uM

> hash
4544010511512484446

$$$$
34
XXILIB    08252103503D 0   0.00000     0.00000

 29 33  0     1  0            999 V2000
   -2.8113   -0.1528   -2.3205 F   0  0  0  0  0  1           0  0  0
   -4.0930   -0.2862    2.4401 O   0  0  0  0  0  2           0  0  0
    1.3663   -0.0000    0.0000 O   0  0  0  0  0  2           0  0  0
   -2.4012   -0.1618    6.1077 O   0  0  0  0  0  2           0  0  0
   -4.1095    0.7171    4.8848 O   0  0  0  0  0  2           0  0  0
   -0.0429    0.1037    2.5317 N   0  0  2  0  0  3           0  0  0
   -0.0256    0.1254   -2.4688 N   0  0  2  0  0  3           0  0  0
    2.0400    1.8428   -3.9632 N   0  0  0  0  0  3           0  0  0
   -2.0785   -0.1250   -1.1957 C   0  0  0  0  0  4           0  0  0
   -2.8792   -0.1178    2.4699 C   0  0  0  0  0  4           0  0  0
    0.0000    0.0000    0.0000 C   0  0  0  0  0  4           0  0  0
   -0.6771    0.0000    1.2515 C   0  0  0  0  0  4           0  0  0
   -0.8237    0.1829    3.6747 C   0  0  0  0  0  4           0  0  0
   -0.6814    0.0017   -1.2546 C   0  0  0  0  0  4           0  0  0
   -2.0841   -0.1024    1.2153 C   0  0  0  0  0  4           0  0  0
   -2.1583    0.0873    3.7566 C   0  0  0  0  0  4           0  0  0
   -2.7746   -0.1845    0.0064 C   0  0  0  0  0  4           0  0  0
   -2.8731    0.1894    5.0367 C   0  0  0  0  0  4           0  0  0
    1.9760    1.1157   -0.6441 C   0  0  0  0  0  4           0  0  0
    1.4028    0.2705    2.6996 C   0  0  1  0  0  4           0  0  0
    0.8793    1.0775   -4.4329 C   0  0  2  0  0  4           0  0  0
   -0.2656    1.2136   -3.4158 C   0  0  0  0  0  4           0  0  0
    0.9660   -0.8292   -2.9591 C   0  0  0  0  0  4           0  0  0
    3.2370    1.5403   -4.7420 C   0  0  0  0  0  4           0  0  0
    1.1277   -0.4384   -4.4370 C   0  0  2  0  0  4           0  0  0
    2.1362   -0.2592    3.9059 C   0  0  0  0  0  4           0  0  0
    2.3585   -0.8877    2.5640 C   0  0  0  0  0  4           0  0  0
    3.6088    0.0663   -4.6130 C   0  0  0  0  0  4           0  0  0
    2.4629   -0.8366   -5.0593 C   0  0  0  0  0  4           0  0  0
  1  9  1  0     0  0
  2 10  2  0     0  0
  3 11  1  0     0  0
  3 19  1  0     0  0
  4 18  2  0     0  0
  5 18  1  0     0  0
  6 12  1  0     0  0
  6 13  1  0     0  0
  6 20  1  0     0  0
  7 14  1  0     0  0
  7 22  1  0     0  0
  7 23  1  0     0  0
  8 21  1  0     0  0
  8 24  1  0     0  0
  9 14  1  0     0  0
  9 17  2  0     0  0
 10 15  1  0     0  0
 10 16  1  0     0  0
 11 12  1  0     0  0
 11 14  2  0     0  0
 12 15  2  0     0  0
 13 16  2  0     0  0
 15 17  1  0     0  0
 16 18  1  0     0  0
 20 26  1  0     0  0
 20 27  1  0     0  0
 21 22  1  0     0  0
 21 25  1  0     0  0
 23 25  1  0     0  0
 24 28  1  0     0  0
 25 29  1  0     0  0
 26 27  1  0     0  0
 28 29  1  0     0  0
M  END
> <standard_type>
pIC50

> <# Confs.>
25

> <canonical_smiles>
COc1c(N2C[C@@H]3CCCN[C@@H]3C2)c(F)cc4c(=O)c(C(O)=O)cn(C5CC5)c14

> <standard_relation>
=

> <Publication_ID>
nan

> <predicted_activity_value>
nan

> <actual_activity_value>
-2.110589710299249

> <Compound>
Moxifloxacin

> <standard_units>
uM

> hash
4544010511512484446

$$$$
34
XXILIB    08252103503D 0   0.00000     0.00000

 29 33  0     1  0            999 V2000
   -2.8113   -0.1528   -2.3205 F   0  0  0  0  0  1           0  0  0
   -4.0930   -0.2862    2.4401 O   0  0  0  0  0  2           0  0  0
    1.3663    0.0000   -0.0000 O   0  0  0  0  0  2           0  0  0
   -2.4012   -0.1618    6.1077 O   0  0  0  0  0  2           0  0  0
   -4.1095    0.7171    4.8848 O   0  0  0  0  0  2           0  0  0
   -0.0429    0.1037    2.5317 N   0  0  2  0  0  3           0  0  0
   -0.0256    0.1254   -2.4688 N   0  0  2  0  0  3           0  0  0
    2.1882    1.7646   -4.8944 N   0  0  0  0  0  3           0  0  0
   -2.0785   -0.1250   -1.1957 C   0  0  0  0  0  4           0  0  0
   -2.8792   -0.1178    2.4699 C   0  0  0  0  0  4           0  0  0
    0.0000    0.0000    0.0000 C   0  0  0  0  0  4           0  0  0
   -0.6771    0.0000    1.2515 C   0  0  0  0  0  4           0  0  0
   -0.8237    0.1829    3.6747 C   0  0  0  0  0  4           0  0  0
   -0.6814    0.0017   -1.2546 C   0  0  0  0  0  4           0  0  0
   -2.0841   -0.1024    1.2153 C   0  0  0  0  0  4           0  0  0
   -2.1583    0.0873    3.7566 C   0  0  0  0  0  4           0  0  0
   -2.7746   -0.1845    0.0064 C   0  0  0  0  0  4           0  0  0
   -2.8731    0.1894    5.0367 C   0  0  0  0  0  4           0  0  0
    1.9760   -1.1157   -0.6441 C   0  0  0  0  0  4           0  0  0
    1.4028    0.2705    2.6996 C   0  0  1  0  0  4           0  0  0
    1.0265    1.0821   -4.3393 C   0  0  2  0  0  4           0  0  0
    0.7989    1.2771   -2.8319 C   0  0  0  0  0  4           0  0  0
   -0.0842   -0.8791   -3.5302 C   0  0  0  0  0  4           0  0  0
    3.4660    1.1415   -4.5609 C   0  0  0  0  0  4           0  0  0
    1.0131   -0.4431   -4.5127 C   0  0  2  0  0  4           0  0  0
    2.1362   -0.2592    3.9059 C   0  0  0  0  0  4           0  0  0
    2.3585   -0.8877    2.5640 C   0  0  0  0  0  4           0  0  0
    3.4870   -0.3457   -4.9014 C   0  0  0  0  0  4           0  0  0
    2.3663   -1.0802   -4.1769 C   0  0  0  0  0  4           0  0  0
  1  9  1  0     0  0
  2 10  2  0     0  0
  3 11  1  0     0  0
  3 19  1  0     0  0
  4 18  2  0     0  0
  5 18  1  0     0  0
  6 12  1  0     0  0
  6 13  1  0     0  0
  6 20  1  0     0  0
  7 14  1  0     0  0
  7 22  1  0     0  0
  7 23  1  0     0  0
  8 21  1  0     0  0
  8 24  1  0     0  0
  9 14  1  0     0  0
  9 17  2  0     0  0
 10 15  1  0     0  0
 10 16  1  0     0  0
 11 12  1  0     0  0
 11 14  2  0     0  0
 12 15  2  0     0  0
 13 16  2  0     0  0
 15 17  1  0     0  0
 16 18  1  0     0  0
 20 26  1  0     0  0
 20 27  1  0     0  0
 21 22  1  0     0  0
 21 25  1  0     0  0
 23 25  1  0     0  0
 24 28  1  0     0  0
 25 29  1  0     0  0
 26 27  1  0     0  0
 28 29  1  0     0  0
M  END
> <standard_type>
pIC50

> <# Confs.>
25

> <canonical_smiles>
COc1c(N2C[C@@H]3CCCN[C@@H]3C2)c(F)cc4c(=O)c(C(O)=O)cn(C5CC5)c14

> <standard_relation>
=

> <Publication_ID>
nan

> <predicted_activity_value>
nan

> <actual_activity_value>
-2.110589710299249

> <Compound>
Moxifloxacin

> <standard_units>
uM

> hash
4544010511512484446

$$$$
34
XXILIB    08252103503D 0   0.00000     0.00000

 29 33  0     1  0            999 V2000
   -2.8113   -0.1528   -2.3205 F   0  0  0  0  0  1           0  0  0
   -4.0930   -0.2862    2.4401 O   0  0  0  0  0  2           0  0  0
    1.3663    0.0000   -0.0000 O   0  0  0  0  0  2           0  0  0
   -3.5836   -0.6952    5.4900 O   0  0  0  0  0  2           0  0  0
   -2.6488    1.3754    5.6478 O   0  0  0  0  0  2           0  0  0
   -0.0429    0.1037    2.5317 N   0  0  2  0  0  3           0  0  0
   -0.0256    0.1254   -2.4688 N   0  0  2  0  0  3           0  0  0
    2.6038    1.0905   -3.7355 N   0  0  0  0  0  3           0  0  0
   -2.0785   -0.1250   -1.1957 C   0  0  0  0  0  4           0  0  0
   -2.8792   -0.1178    2.4699 C   0  0  0  0  0  4           0  0  0
    0.0000    0.0000    0.0000 C   0  0  0  0  0  4           0  0  0
   -0.6771   -0.0000    1.2515 C   0  0  0  0  0  4           0  0  0
   -0.8237    0.1829    3.6747 C   0  0  0  0  0  4           0  0  0
   -0.6814    0.0017   -1.2546 C   0  0  0  0  0  4           0  0  0
   -2.0841   -0.1024    1.2153 C   0  0  0  0  0  4           0  0  0
   -2.1583    0.0873    3.7566 C   0  0  0  0  0  4           0  0  0
   -2.7746   -0.1845    0.0064 C   0  0  0  0  0  4           0  0  0
   -2.8731    0.1894    5.0367 C   0  0  0  0  0  4           0  0  0
    1.9760   -1.2883   -0.0000 C   0  0  0  0  0  4           0  0  0
    1.4028    0.2705    2.6996 C   0  0  1  0  0  4           0  0  0
    1.2292    1.0450   -4.2473 C   0  0  2  0  0  4           0  0  0
    0.2526    1.4068   -3.1162 C   0  0  0  0  0  4           0  0  0
    0.4445   -1.0101   -3.2592 C   0  0  0  0  0  4           0  0  0
    3.5506    0.5029   -4.6784 C   0  0  0  0  0  4           0  0  0
    0.7790   -0.3759   -4.6189 C   0  0  2  0  0  4           0  0  0
    2.1449    1.4529    2.1295 C   0  0  0  0  0  4           0  0  0
    1.9819    1.3210    3.6131 C   0  0  0  0  0  4           0  0  0
    3.2281   -0.9679   -4.9241 C   0  0  0  0  0  4           0  0  0
    1.8054   -1.1448   -5.4458 C   0  0  0  0  0  4           0  0  0
  1  9  1  0     0  0
  2 10  2  0     0  0
  3 11  1  0     0  0
  3 19  1  0     0  0
  4 18  2  0     0  0
  5 18  1  0     0  0
  6 12  1  0     0  0
  6 13  1  0     0  0
  6 20  1  0     0  0
  7 14  1  0     0  0
  7 22  1  0     0  0
  7 23  1  0     0  0
  8 21  1  0     0  0
  8 24  1  0     0  0
  9 14  1  0     0  0
  9 17  2  0     0  0
 10 15  1  0     0  0
 10 16  1  0     0  0
 11 12  1  0     0  0
 11 14  2  0     0  0
 12 15  2  0     0  0
 13 16  2  0     0  0
 15 17  1  0     0  0
 16 18  1  0     0  0
 20 26  1  0     0  0
 20 27  1  0     0  0
 21 22  1  0     0  0
 21 25  1  0     0  0
 23 25  1  0     0  0
 24 28  1  0     0  0
 25 29  1  0     0  0
 26 27  1  0     0  0
 28 29  1  0     0  0
M  END
> <standard_type>
pIC50

> <# Confs.>
25

> <canonical_smiles>
COc1c(N2C[C@@H]3CCCN[C@@H]3C2)c(F)cc4c(=O)c(C(O)=O)cn(C5CC5)c14

> <standard_relation>
=

> <Publication_ID>
nan

> <predicted_activity_value>
nan

> <actual_activity_value>
-2.110589710299249

> <Compound>
Moxifloxacin

> <standard_units>
uM

> hash
4544010511512484446

$$$$
34
XXILIB    08252103503D 0   0.00000     0.00000

 29 33  0     1  0            999 V2000
   -2.8113   -0.1528   -2.3205 F   0  0  0  0  0  1           0  0  0
   -4.0930   -0.2862    2.4401 O   0  0  0  0  0  2           0  0  0
    1.3663   -0.0000    0.0000 O   0  0  0  0  0  2           0  0  0
   -4.0053    0.6350    5.1485 O   0  0  0  0  0  2           0  0  0
   -2.1284   -0.2680    6.0695 O   0  0  0  0  0  2           0  0  0
   -0.0429    0.1037    2.5317 N   0  0  2  0  0  3           0  0  0
   -0.0256    0.1254   -2.4688 N   0  0  2  0  0  3           0  0  0
    0.2192   -1.1558   -5.2523 N   0  0  0  0  0  3           0  0  0
   -2.0785   -0.1250   -1.1957 C   0  0  0  0  0  4           0  0  0
   -2.8792   -0.1178    2.4699 C   0  0  0  0  0  4           0  0  0
    0.0000    0.0000    0.0000 C   0  0  0  0  0  4           0  0  0
   -0.6771    0.0000    1.2515 C   0  0  0  0  0  4           0  0  0
   -0.8237    0.1829    3.6747 C   0  0  0  0  0  4           0  0  0
   -0.6814    0.0017   -1.2546 C   0  0  0  0  0  4           0  0  0
   -2.0841   -0.1024    1.2153 C   0  0  0  0  0  4           0  0  0
   -2.1583    0.0873    3.7566 C   0  0  0  0  0  4           0  0  0
   -2.7746   -0.1845    0.0064 C   0  0  0  0  0  4           0  0  0
   -2.8731    0.1894    5.0367 C   0  0  0  0  0  4           0  0  0
    1.9760    1.1157   -0.6441 C   0  0  0  0  0  4           0  0  0
    1.4028    0.2705    2.6996 C   0  0  1  0  0  4           0  0  0
    1.1848   -0.4274   -4.4213 C   0  0  2  0  0  4           0  0  0
    0.9845   -0.8173   -2.9477 C   0  0  0  0  0  4           0  0  0
   -0.2469    1.2255   -3.4047 C   0  0  0  0  0  4           0  0  0
    0.1789   -0.6350   -6.6154 C   0  0  0  0  0  4           0  0  0
    0.9228    1.0860   -4.3922 C   0  0  2  0  0  4           0  0  0
    2.1362   -0.2592    3.9059 C   0  0  0  0  0  4           0  0  0
    2.3585   -0.8877    2.5640 C   0  0  0  0  0  4           0  0  0
   -0.2580    0.8268   -6.6239 C   0  0  0  0  0  4           0  0  0
    0.6684    1.6882   -5.7711 C   0  0  0  0  0  4           0  0  0
  1  9  1  0     0  0
  2 10  2  0     0  0
  3 11  1  0     0  0
  3 19  1  0     0  0
  4 18  2  0     0  0
  5 18  1  0     0  0
  6 12  1  0     0  0
  6 13  1  0     0  0
  6 20  1  0     0  0
  7 14  1  0     0  0
  7 22  1  0     0  0
  7 23  1  0     0  0
  8 21  1  0     0  0
  8 24  1  0     0  0
  9 14  1  0     0  0
  9 17  2  0     0  0
 10 15  1  0     0  0
 10 16  1  0     0  0
 11 12  1  0     0  0
 11 14  2  0     0  0
 12 15  2  0     0  0
 13 16  2  0     0  0
 15 17  1  0     0  0
 16 18  1  0     0  0
 20 26  1  0     0  0
 20 27  1  0     0  0
 21 22  1  0     0  0
 21 25  1  0     0  0
 23 25  1  0     0  0
 24 28  1  0     0  0
 25 29  1  0     0  0
 26 27  1  0     0  0
 28 29  1  0     0  0
M  END
> <standard_type>
pIC50

> <# Confs.>
25

> <canonical_smiles>
COc1c(N2C[C@@H]3CCCN[C@@H]3C2)c(F)cc4c(=O)c(C(O)=O)cn(C5CC5)c14

> <standard_relation>
=

> <Publication_ID>
nan

> <predicted_activity_value>
nan

> <actual_activity_value>
-2.110589710299249

> <Compound>
Moxifloxacin

> <standard_units>
uM

> hash
4544010511512484446

$$$$
34
XXILIB    08252103503D 0   0.00000     0.00000

 29 33  0     1  0            999 V2000
   -2.8113   -0.1528   -2.3205 F   0  0  0  0  0  1           0  0  0
   -4.0930   -0.2862    2.4401 O   0  0  0  0  0  2           0  0  0
    1.3663   -0.0000    0.0000 O   0  0  0  0  0  2           0  0  0
   -2.4012   -0.1618    6.1077 O   0  0  0  0  0  2           0  0  0
   -4.1095    0.7171    4.8848 O   0  0  0  0  0  2           0  0  0
   -0.0429    0.1037    2.5317 N   0  0  2  0  0  3           0  0  0
   -0.0256    0.1254   -2.4688 N   0  0  2  0  0  3           0  0  0
    0.2192   -1.1558   -5.2523 N   0  0  0  0  0  3           0  0  0
   -2.0785   -0.1250   -1.1957 C   0  0  0  0  0  4           0  0  0
   -2.8792   -0.1178    2.4699 C   0  0  0  0  0  4           0  0  0
    0.0000    0.0000    0.0000 C   0  0  0  0  0  4           0  0  0
   -0.6771    0.0000    1.2515 C   0  0  0  0  0  4           0  0  0
   -0.8237    0.1829    3.6747 C   0  0  0  0  0  4           0  0  0
   -0.6814    0.0017   -1.2546 C   0  0  0  0  0  4           0  0  0
   -2.0841   -0.1024    1.2153 C   0  0  0  0  0  4           0  0  0
   -2.1583    0.0873    3.7566 C   0  0  0  0  0  4           0  0  0
   -2.7746   -0.1845    0.0064 C   0  0  0  0  0  4           0  0  0
   -2.8731    0.1894    5.0367 C   0  0  0  0  0  4           0  0  0
    1.9760    1.1157   -0.6441 C   0  0  0  0  0  4           0  0  0
    1.4028    0.2705    2.6996 C   0  0  1  0  0  4           0  0  0
    1.1848   -0.4274   -4.4213 C   0  0  2  0  0  4           0  0  0
    0.9845   -0.8173   -2.9477 C   0  0  0  0  0  4           0  0  0
   -0.2469    1.2255   -3.4047 C   0  0  0  0  0  4           0  0  0
    0.1789   -0.6350   -6.6154 C   0  0  0  0  0  4           0  0  0
    0.9228    1.0860   -4.3922 C   0  0  2  0  0  4           0  0  0
    2.1362   -0.2592    3.9059 C   0  0  0  0  0  4           0  0  0
    2.3585   -0.8877    2.5640 C   0  0  0  0  0  4           0  0  0
   -0.2580    0.8268   -6.6239 C   0  0  0  0  0  4           0  0  0
    0.6684    1.6882   -5.7711 C   0  0  0  0  0  4           0  0  0
  1  9  1  0     0  0
  2 10  2  0     0  0
  3 11  1  0     0  0
  3 19  1  0     0  0
  4 18  2  0     0  0
  5 18  1  0     0  0
  6 12  1  0     0  0
  6 13  1  0     0  0
  6 20  1  0     0  0
  7 14  1  0     0  0
  7 22  1  0     0  0
  7 23  1  0     0  0
  8 21  1  0     0  0
  8 24  1  0     0  0
  9 14  1  0     0  0
  9 17  2  0     0  0
 10 15  1  0     0  0
 10 16  1  0     0  0
 11 12  1  0     0  0
 11 14  2  0     0  0
 12 15  2  0     0  0
 13 16  2  0     0  0
 15 17  1  0     0  0
 16 18  1  0     0  0
 20 26  1  0     0  0
 20 27  1  0     0  0
 21 22  1  0     0  0
 21 25  1  0     0  0
 23 25  1  0     0  0
 24 28  1  0     0  0
 25 29  1  0     0  0
 26 27  1  0     0  0
 28 29  1  0     0  0
M  END
> <standard_type>
pIC50

> <# Confs.>
25

> <canonical_smiles>
COc1c(N2C[C@@H]3CCCN[C@@H]3C2)c(F)cc4c(=O)c(C(O)=O)cn(C5CC5)c14

> <standard_relation>
=

> <Publication_ID>
nan

> <predicted_activity_value>
nan

> <actual_activity_value>
-2.110589710299249

> <Compound>
Moxifloxacin

> <standard_units>
uM

> hash
4544010511512484446

$$$$
15
XXILIB    08252103503D 0   0.00000     0.00000

 29 30  0     1  0            999 V2000
    7.1506   -1.4013   -6.5456 S   0  0  1  0  0  6           0  0  0
   -2.0475   -0.6032    8.8653 S   0  0  1  0  0  6           0  0  0
    5.8258   -1.6314   -7.0883 O   0  0  0  0  0  2           0  0  0
    8.3101   -1.3092   -7.4126 O   0  0  0  0  0  2           0  0  0
   -0.9933    0.3903    8.8012 O   0  0  0  0  0  2           0  0  0
   -3.0055   -0.6104    9.9546 O   0  0  0  0  0  2           0  0  0
    3.5874   -0.0000   -1.1286 O   0  0  0  0  0  2           0  0  0
    7.1013   -0.0513   -5.4904 N   0  0  0  0  0  3           0  0  0
   -2.8711   -0.6493    7.3625 N   0  0  0  0  0  3           0  0  0
    0.0000    0.0000    0.0000 N   0  0  1  0  0  3           0  0  0
    4.3579    0.0000   -2.2564 C   0  0  0  0  0  4           0  0  0
    6.1523    0.0227   -4.4204 C   0  0  0  0  0  4           0  0  0
   -2.1618   -0.8175    6.1299 C   0  0  0  0  0  4           0  0  0
   -0.9262   -1.0377    3.6112 C   0  0  0  0  0  4           0  0  0
    3.8784    0.0000   -3.5692 C   0  0  0  0  0  4           0  0  0
    5.7381   -0.0119   -2.0339 C   0  0  0  0  0  4           0  0  0
    4.7724   -0.0021   -4.6459 C   0  0  0  0  0  4           0  0  0
    6.6304   -0.0147   -3.1079 C   0  0  0  0  0  4           0  0  0
   -2.8149   -1.4640    5.0760 C   0  0  0  0  0  4           0  0  0
   -0.9051   -0.2453    5.9091 C   0  0  0  0  0  4           0  0  0
   -2.1950   -1.5868    3.8306 C   0  0  0  0  0  4           0  0  0
   -0.2863   -0.3691    4.6624 C   0  0  0  0  0  4           0  0  0
    7.4833   -2.6766   -5.3560 C   0  0  0  0  0  4           0  0  0
   -1.2898   -2.2082    8.8204 C   0  0  0  0  0  4           0  0  0
    2.1766    0.0000   -1.3479 C   0  0  0  0  0  4           0  0  0
    1.4643    0.0000    0.0000 C   0  0  0  0  0  4           0  0  0
   -0.5886    0.0000    1.3450 C   0  0  0  0  0  4           0  0  0
   -0.5121    1.1087   -0.8068 C   0  0  0  0  0  4           0  0  0
   -0.2544   -1.1755    2.2742 C   0  0  0  0  0  4           0  0  0
  1  3  2  0     0  0
  1  4  2  0     0  0
  1  8  1  0     0  0
  1 23  1  0     0  0
  2  5  2  0     0  0
  2  6  2  0     0  0
  2  9  1  0     0  0
  2 24  1  0     0  0
  7 11  1  0     0  0
  7 25  1  0     0  0
  8 12  1  0     0  0
  9 13  1  0     0  0
 10 26  1  0     0  0
 10 27  1  0     0  0
 10 28  1  0     0  0
 11 15  2  0     0  0
 11 16  1  0     0  0
 12 17  2  0     0  0
 12 18  1  0     0  0
 13 19  2  0     0  0
 13 20  1  0     0  0
 14 21  2  0     0  0
 14 22  1  0     0  0
 14 29  1  0     0  0
 15 17  1  0     0  0
 16 18  2  0     0  0
 19 21  1  0     0  0
 20 22  2  0     0  0
 25 26  1  0     0  0
 27 29  1  0     0  0
M  END
> <standard_type>
pIC50

> <# Confs.>
25

> <canonical_smiles>
CS(NC1=CC=C(OCCN(C)CCC2=CC=C(NS(C)(=O)=O)C=C2)C=C1)(=O)=O

> <standard_relation>
=

> <Publication_ID>
nan

> <predicted_activity_value>
nan

> <actual_activity_value>
1.9208187539523751

> <Compound>
Dofetilide

> <standard_units>
uM

> hash
8985363046175769063

$$$$
15
XXILIB    08252103503D 0   0.00000     0.00000

 29 30  0     1  0            999 V2000
    7.1506   -4.9680    4.4864 S   0  0  1  0  0  6           0  0  0
   -3.2062    2.1297    8.2452 S   0  0  1  0  0  6           0  0  0
    5.8258   -5.3229    4.9570 O   0  0  0  0  0  2           0  0  0
    8.3101   -5.7649    4.8401 O   0  0  0  0  0  2           0  0  0
   -3.9410    3.0367    7.3850 O   0  0  0  0  0  2           0  0  0
   -3.6897    1.7984    9.5723 O   0  0  0  0  0  2           0  0  0
    3.5874   -0.9774    0.5643 O   0  0  0  0  0  2           0  0  0
    7.1013   -4.7292    2.7896 N   0  0  0  0  0  3           0  0  0
   -2.8494    0.6946    7.3782 N   0  0  0  0  0  3           0  0  0
    0.0000    0.0000    0.0000 N   0  0  1  0  0  3           0  0  0
    4.3579   -1.9541    1.1282 C   0  0  0  0  0  4           0  0  0
    6.1523   -3.8395    2.1905 C   0  0  0  0  0  4           0  0  0
   -2.2001    0.7378    6.1024 C   0  0  0  0  0  4           0  0  0
   -0.9262    1.0377    3.6112 C   0  0  0  0  0  4           0  0  0
    3.8784   -3.0911    1.7846 C   0  0  0  0  0  4           0  0  0
    5.7381   -1.7555    1.0273 C   0  0  0  0  0  4           0  0  0
    4.7724   -4.0224    2.3248 C   0  0  0  0  0  4           0  0  0
    6.6304   -2.6842    1.5667 C   0  0  0  0  0  4           0  0  0
   -2.8322    1.4278    5.0636 C   0  0  0  0  0  4           0  0  0
   -0.9110    0.2329    5.9048 C   0  0  0  0  0  4           0  0  0
   -2.2064    1.5630    3.8224 C   0  0  0  0  0  4           0  0  0
   -0.2863    0.3691    4.6624 C   0  0  0  0  0  4           0  0  0
    7.4833   -3.3001    4.9961 C   0  0  0  0  0  4           0  0  0
   -1.5584    2.7648    8.4290 C   0  0  0  0  0  4           0  0  0
    2.1766   -1.1673    0.6740 C   0  0  0  0  0  4           0  0  0
    1.4643   -0.0000   -0.0000 C   0  0  0  0  0  4           0  0  0
   -0.5886    0.0000    1.3450 C   0  0  0  0  0  4           0  0  0
   -0.5121    1.1087   -0.8068 C   0  0  0  0  0  4           0  0  0
   -0.2544    1.1755    2.2742 C   0  0  0  0  0  4           0  0  0
  1  3  2  0     0  0
  1  4  2  0     0  0
  1  8  1  0     0  0
  1 23  1  0     0  0
  2  5  2  0     0  0
  2  6  2  0     0  0
  2  9  1  0     0  0
  2 24  1  0     0  0
  7 11  1  0     0  0
  7 25  1  0     0  0
  8 12  1  0     0  0
  9 13  1  0     0  0
 10 26  1  0     0  0
 10 27  1  0     0  0
 10 28  1  0     0  0
 11 15  2  0     0  0
 11 16  1  0     0  0
 12 17  2  0     0  0
 12 18  1  0     0  0
 13 19  2  0     0  0
 13 20  1  0     0  0
 14 21  2  0     0  0
 14 22  1  0     0  0
 14 29  1  0     0  0
 15 17  1  0     0  0
 16 18  2  0     0  0
 19 21  1  0     0  0
 20 22  2  0     0  0
 25 26  1  0     0  0
 27 29  1  0     0  0
M  END
> <standard_type>
pIC50

> <# Confs.>
25

> <canonical_smiles>
CS(NC1=CC=C(OCCN(C)CCC2=CC=C(NS(C)(=O)=O)C=C2)C=C1)(=O)=O

> <standard_relation>
=

> <Publication_ID>
nan

> <predicted_activity_value>
nan

> <actual_activity_value>
1.9208187539523751

> <Compound>
Dofetilide

> <standard_units>
uM

> hash
8985363046175769063

$$$$
15
XXILIB    08252103503D 0   0.00000     0.00000

 29 30  0     1  0            999 V2000
    7.1506    6.3694    2.0592 S   0  0  1  0  0  6           0  0  0
   -2.0475   -0.6032    8.8653 S   0  0  1  0  0  6           0  0  0
    5.8258    6.9543    2.1313 O   0  0  0  0  0  2           0  0  0
    8.3101    7.0741    2.5725 O   0  0  0  0  0  2           0  0  0
   -0.9933    0.3903    8.8012 O   0  0  0  0  0  2           0  0  0
   -3.0055   -0.6104    9.9546 O   0  0  0  0  0  2           0  0  0
    3.5874    0.9774    0.5643 O   0  0  0  0  0  2           0  0  0
    7.1013    4.7804    2.7008 N   0  0  0  0  0  3           0  0  0
   -2.8711   -0.6493    7.3625 N   0  0  0  0  0  3           0  0  0
    0.0000    0.0000    0.0000 N   0  0  1  0  0  3           0  0  0
    4.3579    1.9541    1.1282 C   0  0  0  0  0  4           0  0  0
    6.1523    3.8168    2.2299 C   0  0  0  0  0  4           0  0  0
   -2.1618   -0.8175    6.1299 C   0  0  0  0  0  4           0  0  0
   -0.9262   -1.0377    3.6112 C   0  0  0  0  0  4           0  0  0
    3.8784    3.0911    1.7846 C   0  0  0  0  0  4           0  0  0
    5.7381    1.7674    1.0067 C   0  0  0  0  0  4           0  0  0
    4.7724    4.0245    2.3211 C   0  0  0  0  0  4           0  0  0
    6.6304    2.6989    1.5412 C   0  0  0  0  0  4           0  0  0
   -2.8149   -1.4640    5.0760 C   0  0  0  0  0  4           0  0  0
   -0.9051   -0.2453    5.9091 C   0  0  0  0  0  4           0  0  0
   -2.1950   -1.5868    3.8306 C   0  0  0  0  0  4           0  0  0
   -0.2863   -0.3691    4.6624 C   0  0  0  0  0  4           0  0  0
    7.4833    5.9768    0.3600 C   0  0  0  0  0  4           0  0  0
   -1.2898   -2.2082    8.8204 C   0  0  0  0  0  4           0  0  0
    2.1766    1.1673    0.6740 C   0  0  0  0  0  4           0  0  0
    1.4643   -0.0000    0.0000 C   0  0  0  0  0  4           0  0  0
   -0.5886    0.0000    1.3450 C   0  0  0  0  0  4           0  0  0
   -0.5121    1.1087   -0.8068 C   0  0  0  0  0  4           0  0  0
   -0.2544   -1.1755    2.2742 C   0  0  0  0  0  4           0  0  0
  1  3  2  0     0  0
  1  4  2  0     0  0
  1  8  1  0     0  0
  1 23  1  0     0  0
  2  5  2  0     0  0
  2  6  2  0     0  0
  2  9  1  0     0  0
  2 24  1  0     0  0
  7 11  1  0     0  0
  7 25  1  0     0  0
  8 12  1  0     0  0
  9 13  1  0     0  0
 10 26  1  0     0  0
 10 27  1  0     0  0
 10 28  1  0     0  0
 11 15  2  0     0  0
 11 16  1  0     0  0
 12 17  2  0     0  0
 12 18  1  0     0  0
 13 19  2  0     0  0
 13 20  1  0     0  0
 14 21  2  0     0  0
 14 22  1  0     0  0
 14 29  1  0     0  0
 15 17  1  0     0  0
 16 18  2  0     0  0
 19 21  1  0     0  0
 20 22  2  0     0  0
 25 26  1  0     0  0
 27 29  1  0     0  0
M  END
> <standard_type>
pIC50

> <# Confs.>
25

> <canonical_smiles>
CS(NC1=CC=C(OCCN(C)CCC2=CC=C(NS(C)(=O)=O)C=C2)C=C1)(=O)=O

> <standard_relation>
=

> <Publication_ID>
nan

> <predicted_activity_value>
nan

> <actual_activity_value>
1.9208187539523751

> <Compound>
Dofetilide

> <standard_units>
uM

> hash
8985363046175769063

$$$$
15
XXILIB    08252103503D 0   0.00000     0.00000

 29 30  0     1  0            999 V2000
    7.1506   -4.9680    4.4864 S   0  0  1  0  0  6           0  0  0
   -2.6418   -0.6360    8.4389 S   0  0  1  0  0  6           0  0  0
    5.8258   -5.3229    4.9570 O   0  0  0  0  0  2           0  0  0
    8.3101   -5.7649    4.8401 O   0  0  0  0  0  2           0  0  0
   -1.2249   -0.8732    8.6350 O   0  0  0  0  0  2           0  0  0
   -3.5447   -0.5138    9.5678 O   0  0  0  0  0  2           0  0  0
    3.5874   -0.9774    0.5643 O   0  0  0  0  0  2           0  0  0
    7.1013   -4.7292    2.7896 N   0  0  0  0  0  3           0  0  0
   -2.8494    0.6946    7.3782 N   0  0  0  0  0  3           0  0  0
    0.0000    0.0000    0.0000 N   0  0  1  0  0  3           0  0  0
    4.3579   -1.9541    1.1282 C   0  0  0  0  0  4           0  0  0
    6.1523   -3.8395    2.1905 C   0  0  0  0  0  4           0  0  0
   -2.2001    0.7378    6.1024 C   0  0  0  0  0  4           0  0  0
   -0.9262    1.0377    3.6112 C   0  0  0  0  0  4           0  0  0
    3.8784   -3.0911    1.7846 C   0  0  0  0  0  4           0  0  0
    5.7381   -1.7555    1.0273 C   0  0  0  0  0  4           0  0  0
    4.7724   -4.0224    2.3248 C   0  0  0  0  0  4           0  0  0
    6.6304   -2.6842    1.5667 C   0  0  0  0  0  4           0  0  0
   -2.8322    1.4278    5.0636 C   0  0  0  0  0  4           0  0  0
   -0.9110    0.2329    5.9048 C   0  0  0  0  0  4           0  0  0
   -2.2064    1.5630    3.8224 C   0  0  0  0  0  4           0  0  0
   -0.2863    0.3691    4.6624 C   0  0  0  0  0  4           0  0  0
    7.4833   -3.3001    4.9961 C   0  0  0  0  0  4           0  0  0
   -3.2735   -1.9276    7.3974 C   0  0  0  0  0  4           0  0  0
    2.1766   -1.1673    0.6740 C   0  0  0  0  0  4           0  0  0
    1.4643   -0.0000   -0.0000 C   0  0  0  0  0  4           0  0  0
   -0.5886    0.0000    1.3450 C   0  0  0  0  0  4           0  0  0
   -0.5121    1.1087   -0.8068 C   0  0  0  0  0  4           0  0  0
   -0.2544    1.1755    2.2742 C   0  0  0  0  0  4           0  0  0
  1  3  2  0     0  0
  1  4  2  0     0  0
  1  8  1  0     0  0
  1 23  1  0     0  0
  2  5  2  0     0  0
  2  6  2  0     0  0
  2  9  1  0     0  0
  2 24  1  0     0  0
  7 11  1  0     0  0
  7 25  1  0     0  0
  8 12  1  0     0  0
  9 13  1  0     0  0
 10 26  1  0     0  0
 10 27  1  0     0  0
 10 28  1  0     0  0
 11 15  2  0     0  0
 11 16  1  0     0  0
 12 17  2  0     0  0
 12 18  1  0     0  0
 13 19  2  0     0  0
 13 20  1  0     0  0
 14 21  2  0     0  0
 14 22  1  0     0  0
 14 29  1  0     0  0
 15 17  1  0     0  0
 16 18  2  0     0  0
 19 21  1  0     0  0
 20 22  2  0     0  0
 25 26  1  0     0  0
 27 29  1  0     0  0
M  END
> <standard_type>
pIC50

> <# Confs.>
25

> <canonical_smiles>
CS(NC1=CC=C(OCCN(C)CCC2=CC=C(NS(C)(=O)=O)C=C2)C=C1)(=O)=O

> <standard_relation>
=

> <Publication_ID>
nan

> <predicted_activity_value>
nan

> <actual_activity_value>
1.9208187539523751

> <Compound>
Dofetilide

> <standard_units>
uM

> hash
8985363046175769063

$$$$
15
XXILIB    08252103503D 0   0.00000     0.00000

 29 30  0     1  0            999 V2000
    7.1358    1.1283   -6.7338 S   0  0  1  0  0  6           0  0  0
   -2.0475   -0.6032    8.8653 S   0  0  1  0  0  6           0  0  0
    7.7679    0.5633   -7.9100 O   0  0  0  0  0  2           0  0  0
    5.8493    1.7931   -6.8205 O   0  0  0  0  0  2           0  0  0
   -0.9933    0.3903    8.8012 O   0  0  0  0  0  2           0  0  0
   -3.0055   -0.6104    9.9546 O   0  0  0  0  0  2           0  0  0
    3.5874   -0.0000   -1.1286 O   0  0  0  0  0  2           0  0  0
    7.1013   -0.0513   -5.4904 N   0  0  0  0  0  3           0  0  0
   -2.8711   -0.6493    7.3625 N   0  0  0  0  0  3           0  0  0
    0.0000    0.0000    0.0000 N   0  0  1  0  0  3           0  0  0
    4.3579    0.0000   -2.2564 C   0  0  0  0  0  4           0  0  0
    6.1523    0.0227   -4.4204 C   0  0  0  0  0  4           0  0  0
   -2.1618   -0.8175    6.1299 C   0  0  0  0  0  4           0  0  0
   -0.9262   -1.0377    3.6112 C   0  0  0  0  0  4           0  0  0
    3.8784    0.0000   -3.5692 C   0  0  0  0  0  4           0  0  0
    5.7381   -0.0119   -2.0339 C   0  0  0  0  0  4           0  0  0
    4.7724   -0.0021   -4.6459 C   0  0  0  0  0  4           0  0  0
    6.6304   -0.0147   -3.1079 C   0  0  0  0  0  4           0  0  0
   -2.8149   -1.4640    5.0760 C   0  0  0  0  0  4           0  0  0
   -0.9051   -0.2453    5.9091 C   0  0  0  0  0  4           0  0  0
   -2.1950   -1.5868    3.8306 C   0  0  0  0  0  4           0  0  0
   -0.2863   -0.3691    4.6624 C   0  0  0  0  0  4           0  0  0
    8.2733    2.2774   -6.0003 C   0  0  0  0  0  4           0  0  0
   -1.2898   -2.2082    8.8204 C   0  0  0  0  0  4           0  0  0
    2.1766    0.0000   -1.3479 C   0  0  0  0  0  4           0  0  0
    1.4643    0.0000    0.0000 C   0  0  0  0  0  4           0  0  0
   -0.5886    0.0000    1.3450 C   0  0  0  0  0  4           0  0  0
   -0.5121    1.1087   -0.8068 C   0  0  0  0  0  4           0  0  0
   -0.2544   -1.1755    2.2742 C   0  0  0  0  0  4           0  0  0
  1  3  2  0     0  0
  1  4  2  0     0  0
  1  8  1  0     0  0
  1 23  1  0     0  0
  2  5  2  0     0  0
  2  6  2  0     0  0
  2  9  1  0     0  0
  2 24  1  0     0  0
  7 11  1  0     0  0
  7 25  1  0     0  0
  8 12  1  0     0  0
  9 13  1  0     0  0
 10 26  1  0     0  0
 10 27  1  0     0  0
 10 28  1  0     0  0
 11 15  2  0     0  0
 11 16  1  0     0  0
 12 17  2  0     0  0
 12 18  1  0     0  0
 13 19  2  0     0  0
 13 20  1  0     0  0
 14 21  2  0     0  0
 14 22  1  0     0  0
 14 29  1  0     0  0
 15 17  1  0     0  0
 16 18  2  0     0  0
 19 21  1  0     0  0
 20 22  2  0     0  0
 25 26  1  0     0  0
 27 29  1  0     0  0
M  END
> <standard_type>
pIC50

> <# Confs.>
25

> <canonical_smiles>
CS(NC1=CC=C(OCCN(C)CCC2=CC=C(NS(C)(=O)=O)C=C2)C=C1)(=O)=O

> <standard_relation>
=

> <Publication_ID>
nan

> <predicted_activity_value>
nan

> <actual_activity_value>
1.9208187539523751

> <Compound>
Dofetilide

> <standard_units>
uM

> hash
8985363046175769063

$$$$
15
XXILIB    08252103503D 0   0.00000     0.00000

 29 30  0     1  0            999 V2000
    7.1506   -1.4013   -6.5456 S   0  0  1  0  0  6           0  0  0
   -4.4695   -0.5159    7.6391 S   0  0  1  0  0  6           0  0  0
    5.8258   -1.6314   -7.0883 O   0  0  0  0  0  2           0  0  0
    8.3101   -1.3092   -7.4126 O   0  0  0  0  0  2           0  0  0
   -5.1327   -1.5895    6.9250 O   0  0  0  0  0  2           0  0  0
   -4.7608   -0.2525    9.0357 O   0  0  0  0  0  2           0  0  0
    3.5874   -0.0000   -1.1286 O   0  0  0  0  0  2           0  0  0
    7.1013   -0.0513   -5.4904 N   0  0  0  0  0  3           0  0  0
   -2.7758   -0.6482    7.4104 N   0  0  0  0  0  3           0  0  0
    0.0000   -0.0000    0.0000 N   0  0  1  0  0  3           0  0  0
    4.3579    0.0000   -2.2564 C   0  0  0  0  0  4           0  0  0
    6.1523    0.0227   -4.4204 C   0  0  0  0  0  4           0  0  0
   -2.2068   -0.7420    6.0995 C   0  0  0  0  0  4           0  0  0
   -0.9262   -1.0377    3.6112 C   0  0  0  0  0  4           0  0  0
    3.8784    0.0000   -3.5692 C   0  0  0  0  0  4           0  0  0
    5.7381   -0.0119   -2.0339 C   0  0  0  0  0  4           0  0  0
    4.7724   -0.0021   -4.6459 C   0  0  0  0  0  4           0  0  0
    6.6304   -0.0147   -3.1079 C   0  0  0  0  0  4           0  0  0
   -0.9234   -0.2249    5.8989 C   0  0  0  0  0  4           0  0  0
   -2.8323   -1.4437    5.0641 C   0  0  0  0  0  4           0  0  0
   -0.2944   -0.3581    4.6591 C   0  0  0  0  0  4           0  0  0
   -2.2015   -1.5761    3.8242 C   0  0  0  0  0  4           0  0  0
    7.4833   -2.6766   -5.3560 C   0  0  0  0  0  4           0  0  0
   -4.7570    0.9927    6.7482 C   0  0  0  0  0  4           0  0  0
    2.1766    0.0000   -1.3479 C   0  0  0  0  0  4           0  0  0
    1.4643    0.0000    0.0000 C   0  0  0  0  0  4           0  0  0
   -0.5886   -0.0000    1.3450 C   0  0  0  0  0  4           0  0  0
   -0.5121    1.1087   -0.8068 C   0  0  0  0  0  4           0  0  0
   -0.2544   -1.1755    2.2742 C   0  0  0  0  0  4           0  0  0
  1  3  2  0     0  0
  1  4  2  0     0  0
  1  8  1  0     0  0
  1 23  1  0     0  0
  2  5  2  0     0  0
  2  6  2  0     0  0
  2  9  1  0     0  0
  2 24  1  0     0  0
  7 11  1  0     0  0
  7 25  1  0     0  0
  8 12  1  0     0  0
  9 13  1  0     0  0
 10 26  1  0     0  0
 10 27  1  0     0  0
 10 28  1  0     0  0
 11 15  2  0     0  0
 11 16  1  0     0  0
 12 17  2  0     0  0
 12 18  1  0     0  0
 13 19  2  0     0  0
 13 20  1  0     0  0
 14 21  2  0     0  0
 14 22  1  0     0  0
 14 29  1  0     0  0
 15 17  1  0     0  0
 16 18  2  0     0  0
 19 21  1  0     0  0
 20 22  2  0     0  0
 25 26  1  0     0  0
 27 29  1  0     0  0
M  END
> <standard_type>
pIC50

> <# Confs.>
25

> <canonical_smiles>
CS(NC1=CC=C(OCCN(C)CCC2=CC=C(NS(C)(=O)=O)C=C2)C=C1)(=O)=O

> <standard_relation>
=

> <Publication_ID>
nan

> <predicted_activity_value>
nan

> <actual_activity_value>
1.9208187539523751

> <Compound>
Dofetilide

> <standard_units>
uM

> hash
8985363046175769063

$$$$
15
XXILIB    08252103503D 0   0.00000     0.00000

 29 30  0     1  0            999 V2000
    7.1506   -1.4013   -6.5456 S   0  0  1  0  0  6           0  0  0
   -2.8360   -0.9788    8.0711 S   0  0  1  0  0  6           0  0  0
    5.8258   -1.6314   -7.0883 O   0  0  0  0  0  2           0  0  0
    8.3101   -1.3092   -7.4126 O   0  0  0  0  0  2           0  0  0
   -1.6398   -1.7904    7.9581 O   0  0  0  0  0  2           0  0  0
   -3.5799   -0.9092    9.3146 O   0  0  0  0  0  2           0  0  0
    3.5874   -0.0000   -1.1286 O   0  0  0  0  0  2           0  0  0
    7.1013   -0.0513   -5.4904 N   0  0  0  0  0  3           0  0  0
   -2.5004    0.6029    7.5017 N   0  0  0  0  0  3           0  0  0
    0.0000    0.0000   -0.0000 N   0  0  1  0  0  3           0  0  0
    4.3579    0.0000   -2.2564 C   0  0  0  0  0  4           0  0  0
    6.1523    0.0227   -4.4204 C   0  0  0  0  0  4           0  0  0
   -1.9226    0.8218    6.2097 C   0  0  0  0  0  4           0  0  0
   -0.7817    1.0377    3.6463 C   0  0  0  0  0  4           0  0  0
    3.8784    0.0000   -3.5692 C   0  0  0  0  0  4           0  0  0
    5.7381   -0.0119   -2.0339 C   0  0  0  0  0  4           0  0  0
    4.7724   -0.0021   -4.6459 C   0  0  0  0  0  4           0  0  0
    6.6304   -0.0147   -3.1079 C   0  0  0  0  0  4           0  0  0
   -0.6696    0.2610    5.9438 C   0  0  0  0  0  4           0  0  0
   -2.6221    1.4561    5.1782 C   0  0  0  0  0  4           0  0  0
   -0.0968    0.3819    4.6759 C   0  0  0  0  0  4           0  0  0
   -2.0475    1.5761    3.9102 C   0  0  0  0  0  4           0  0  0
    7.4833   -2.6766   -5.3560 C   0  0  0  0  0  4           0  0  0
   -3.9705   -1.4981    6.8079 C   0  0  0  0  0  4           0  0  0
    2.1766    0.0000   -1.3479 C   0  0  0  0  0  4           0  0  0
    1.4643    0.0000    0.0000 C   0  0  0  0  0  4           0  0  0
   -0.5348    0.0000    1.3685 C   0  0  0  0  0  4           0  0  0
   -0.5284   -1.1589   -0.7291 C   0  0  0  0  0  4           0  0  0
   -0.1638    1.1755    2.2836 C   0  0  0  0  0  4           0  0  0
  1  3  2  0     0  0
  1  4  2  0     0  0
  1  8  1  0     0  0
  1 23  1  0     0  0
  2  5  2  0     0  0
  2  6  2  0     0  0
  2  9  1  0     0  0
  2 24  1  0     0  0
  7 11  1  0     0  0
  7 25  1  0     0  0
  8 12  1  0     0  0
  9 13  1  0     0  0
 10 26  1  0     0  0
 10 27  1  0     0  0
 10 28  1  0     0  0
 11 15  2  0     0  0
 11 16  1  0     0  0
 12 17  2  0     0  0
 12 18  1  0     0  0
 13 19  2  0     0  0
 13 20  1  0     0  0
 14 21  2  0     0  0
 14 22  1  0     0  0
 14 29  1  0     0  0
 15 17  1  0     0  0
 16 18  2  0     0  0
 19 21  1  0     0  0
 20 22  2  0     0  0
 25 26  1  0     0  0
 27 29  1  0     0  0
M  END
> <standard_type>
pIC50

> <# Confs.>
25

> <canonical_smiles>
CS(NC1=CC=C(OCCN(C)CCC2=CC=C(NS(C)(=O)=O)C=C2)C=C1)(=O)=O

> <standard_relation>
=

> <Publication_ID>
nan

> <predicted_activity_value>
nan

> <actual_activity_value>
1.9208187539523751

> <Compound>
Dofetilide

> <standard_units>
uM

> hash
8985363046175769063

$$$$
15
XXILIB    08252103503D 0   0.00000     0.00000

 29 30  0     1  0            999 V2000
    7.1506    6.3694    2.0592 S   0  0  1  0  0  6           0  0  0
   -4.4695   -0.5159    7.6391 S   0  0  1  0  0  6           0  0  0
    5.8258    6.9543    2.1313 O   0  0  0  0  0  2           0  0  0
    8.3101    7.0741    2.5725 O   0  0  0  0  0  2           0  0  0
   -5.1327   -1.5895    6.9250 O   0  0  0  0  0  2           0  0  0
   -4.7608   -0.2525    9.0357 O   0  0  0  0  0  2           0  0  0
    3.5874    0.9774    0.5643 O   0  0  0  0  0  2           0  0  0
    7.1013    4.7804    2.7008 N   0  0  0  0  0  3           0  0  0
   -2.7758   -0.6482    7.4104 N   0  0  0  0  0  3           0  0  0
    0.0000   -0.0000    0.0000 N   0  0  1  0  0  3           0  0  0
    4.3579    1.9541    1.1282 C   0  0  0  0  0  4           0  0  0
    6.1523    3.8168    2.2299 C   0  0  0  0  0  4           0  0  0
   -2.2068   -0.7420    6.0995 C   0  0  0  0  0  4           0  0  0
   -0.9262   -1.0377    3.6112 C   0  0  0  0  0  4           0  0  0
    3.8784    3.0911    1.7846 C   0  0  0  0  0  4           0  0  0
    5.7381    1.7674    1.0067 C   0  0  0  0  0  4           0  0  0
    4.7724    4.0245    2.3211 C   0  0  0  0  0  4           0  0  0
    6.6304    2.6989    1.5412 C   0  0  0  0  0  4           0  0  0
   -0.9234   -0.2249    5.8989 C   0  0  0  0  0  4           0  0  0
   -2.8323   -1.4437    5.0641 C   0  0  0  0  0  4           0  0  0
   -0.2944   -0.3581    4.6591 C   0  0  0  0  0  4           0  0  0
   -2.2015   -1.5761    3.8242 C   0  0  0  0  0  4           0  0  0
    7.4833    5.9768    0.3600 C   0  0  0  0  0  4           0  0  0
   -4.7570    0.9927    6.7482 C   0  0  0  0  0  4           0  0  0
    2.1766    1.1673    0.6740 C   0  0  0  0  0  4           0  0  0
    1.4643   -0.0000    0.0000 C   0  0  0  0  0  4           0  0  0
   -0.5886   -0.0000    1.3450 C   0  0  0  0  0  4           0  0  0
   -0.5121    1.1087   -0.8068 C   0  0  0  0  0  4           0  0  0
   -0.2544   -1.1755    2.2742 C   0  0  0  0  0  4           0  0  0
  1  3  2  0     0  0
  1  4  2  0     0  0
  1  8  1  0     0  0
  1 23  1  0     0  0
  2  5  2  0     0  0
  2  6  2  0     0  0
  2  9  1  0     0  0
  2 24  1  0     0  0
  7 11  1  0     0  0
  7 25  1  0     0  0
  8 12  1  0     0  0
  9 13  1  0     0  0
 10 26  1  0     0  0
 10 27  1  0     0  0
 10 28  1  0     0  0
 11 15  2  0     0  0
 11 16  1  0     0  0
 12 17  2  0     0  0
 12 18  1  0     0  0
 13 19  2  0     0  0
 13 20  1  0     0  0
 14 21  2  0     0  0
 14 22  1  0     0  0
 14 29  1  0     0  0
 15 17  1  0     0  0
 16 18  2  0     0  0
 19 21  1  0     0  0
 20 22  2  0     0  0
 25 26  1  0     0  0
 27 29  1  0     0  0
M  END
> <standard_type>
pIC50

> <# Confs.>
25

> <canonical_smiles>
CS(NC1=CC=C(OCCN(C)CCC2=CC=C(NS(C)(=O)=O)C=C2)C=C1)(=O)=O

> <standard_relation>
=

> <Publication_ID>
nan

> <predicted_activity_value>
nan

> <actual_activity_value>
1.9208187539523751

> <Compound>
Dofetilide

> <standard_units>
uM

> hash
8985363046175769063

$$$$
15
XXILIB    08252103503D 0   0.00000     0.00000

 29 30  0     1  0            999 V2000
    7.1506   -1.4013   -6.5456 S   0  0  1  0  0  6           0  0  0
   -3.5504    1.7550    8.2148 S   0  0  1  0  0  6           0  0  0
    5.8258   -1.6314   -7.0883 O   0  0  0  0  0  2           0  0  0
    8.3101   -1.3092   -7.4126 O   0  0  0  0  0  2           0  0  0
   -4.6144    2.0725    7.2823 O   0  0  0  0  0  2           0  0  0
   -3.8423    1.3768    9.5846 O   0  0  0  0  0  2           0  0  0
    3.5874   -0.0000   -1.1286 O   0  0  0  0  0  2           0  0  0
    7.1013   -0.0513   -5.4904 N   0  0  0  0  0  3           0  0  0
   -2.5004    0.6029    7.5017 N   0  0  0  0  0  3           0  0  0
    0.0000    0.0000   -0.0000 N   0  0  1  0  0  3           0  0  0
    4.3579    0.0000   -2.2564 C   0  0  0  0  0  4           0  0  0
    6.1523    0.0227   -4.4204 C   0  0  0  0  0  4           0  0  0
   -1.9226    0.8218    6.2097 C   0  0  0  0  0  4           0  0  0
   -0.7817    1.0377    3.6463 C   0  0  0  0  0  4           0  0  0
    3.8784    0.0000   -3.5692 C   0  0  0  0  0  4           0  0  0
    5.7381   -0.0119   -2.0339 C   0  0  0  0  0  4           0  0  0
    4.7724   -0.0021   -4.6459 C   0  0  0  0  0  4           0  0  0
    6.6304   -0.0147   -3.1079 C   0  0  0  0  0  4           0  0  0
   -0.6696    0.2610    5.9438 C   0  0  0  0  0  4           0  0  0
   -2.6221    1.4561    5.1782 C   0  0  0  0  0  4           0  0  0
   -0.0968    0.3819    4.6759 C   0  0  0  0  0  4           0  0  0
   -2.0475    1.5761    3.9102 C   0  0  0  0  0  4           0  0  0
    7.4833   -2.6766   -5.3560 C   0  0  0  0  0  4           0  0  0
   -2.4451    3.1431    8.2766 C   0  0  0  0  0  4           0  0  0
    2.1766    0.0000   -1.3479 C   0  0  0  0  0  4           0  0  0
    1.4643    0.0000    0.0000 C   0  0  0  0  0  4           0  0  0
   -0.5348    0.0000    1.3685 C   0  0  0  0  0  4           0  0  0
   -0.5284   -1.1589   -0.7291 C   0  0  0  0  0  4           0  0  0
   -0.1638    1.1755    2.2836 C   0  0  0  0  0  4           0  0  0
  1  3  2  0     0  0
  1  4  2  0     0  0
  1  8  1  0     0  0
  1 23  1  0     0  0
  2  5  2  0     0  0
  2  6  2  0     0  0
  2  9  1  0     0  0
  2 24  1  0     0  0
  7 11  1  0     0  0
  7 25  1  0     0  0
  8 12  1  0     0  0
  9 13  1  0     0  0
 10 26  1  0     0  0
 10 27  1  0     0  0
 10 28  1  0     0  0
 11 15  2  0     0  0
 11 16  1  0     0  0
 12 17  2  0     0  0
 12 18  1  0     0  0
 13 19  2  0     0  0
 13 20  1  0     0  0
 14 21  2  0     0  0
 14 22  1  0     0  0
 14 29  1  0     0  0
 15 17  1  0     0  0
 16 18  2  0     0  0
 19 21  1  0     0  0
 20 22  2  0     0  0
 25 26  1  0     0  0
 27 29  1  0     0  0
M  END
> <standard_type>
pIC50

> <# Confs.>
25

> <canonical_smiles>
CS(NC1=CC=C(OCCN(C)CCC2=CC=C(NS(C)(=O)=O)C=C2)C=C1)(=O)=O

> <standard_relation>
=

> <Publication_ID>
nan

> <predicted_activity_value>
nan

> <actual_activity_value>
1.9208187539523751

> <Compound>
Dofetilide

> <standard_units>
uM

> hash
8985363046175769063

$$$$
15
XXILIB    08252103503D 0   0.00000     0.00000

 29 30  0     1  0            999 V2000
    7.1358    5.2674    4.3440 S   0  0  1  0  0  6           0  0  0
   -4.3394    0.2328    7.4323 S   0  0  1  0  0  6           0  0  0
    7.7679    6.5686    4.4429 O   0  0  0  0  0  2           0  0  0
    5.8493    5.0101    4.9631 O   0  0  0  0  0  2           0  0  0
   -5.2580   -0.2907    6.4401 O   0  0  0  0  0  2           0  0  0
   -4.7470    0.4060    8.8138 O   0  0  0  0  0  2           0  0  0
    3.5874    0.9774    0.5643 O   0  0  0  0  0  2           0  0  0
    7.1013    4.7804    2.7008 N   0  0  0  0  0  3           0  0  0
   -2.8711   -0.6493    7.3625 N   0  0  0  0  0  3           0  0  0
    0.0000    0.0000    0.0000 N   0  0  1  0  0  3           0  0  0
    4.3579    1.9541    1.1282 C   0  0  0  0  0  4           0  0  0
    6.1523    3.8168    2.2299 C   0  0  0  0  0  4           0  0  0
   -2.1618   -0.8175    6.1299 C   0  0  0  0  0  4           0  0  0
   -0.9262   -1.0377    3.6112 C   0  0  0  0  0  4           0  0  0
    3.8784    3.0911    1.7846 C   0  0  0  0  0  4           0  0  0
    5.7381    1.7674    1.0067 C   0  0  0  0  0  4           0  0  0
    4.7724    4.0245    2.3211 C   0  0  0  0  0  4           0  0  0
    6.6304    2.6989    1.5412 C   0  0  0  0  0  4           0  0  0
   -2.8149   -1.4640    5.0760 C   0  0  0  0  0  4           0  0  0
   -0.9051   -0.2453    5.9091 C   0  0  0  0  0  4           0  0  0
   -2.1950   -1.5868    3.8306 C   0  0  0  0  0  4           0  0  0
   -0.2863   -0.3691    4.6624 C   0  0  0  0  0  4           0  0  0
    8.2733    4.0577    4.9725 C   0  0  0  0  0  4           0  0  0
   -3.7506    1.8057    6.8564 C   0  0  0  0  0  4           0  0  0
    2.1766    1.1673    0.6740 C   0  0  0  0  0  4           0  0  0
    1.4643   -0.0000    0.0000 C   0  0  0  0  0  4           0  0  0
   -0.5886    0.0000    1.3450 C   0  0  0  0  0  4           0  0  0
   -0.5121    1.1087   -0.8068 C   0  0  0  0  0  4           0  0  0
   -0.2544   -1.1755    2.2742 C   0  0  0  0  0  4           0  0  0
  1  3  2  0     0  0
  1  4  2  0     0  0
  1  8  1  0     0  0
  1 23  1  0     0  0
  2  5  2  0     0  0
  2  6  2  0     0  0
  2  9  1  0     0  0
  2 24  1  0     0  0
  7 11  1  0     0  0
  7 25  1  0     0  0
  8 12  1  0     0  0
  9 13  1  0     0  0
 10 26  1  0     0  0
 10 27  1  0     0  0
 10 28  1  0     0  0
 11 15  2  0     0  0
 11 16  1  0     0  0
 12 17  2  0     0  0
 12 18  1  0     0  0
 13 19  2  0     0  0
 13 20  1  0     0  0
 14 21  2  0     0  0
 14 22  1  0     0  0
 14 29  1  0     0  0
 15 17  1  0     0  0
 16 18  2  0     0  0
 19 21  1  0     0  0
 20 22  2  0     0  0
 25 26  1  0     0  0
 27 29  1  0     0  0
M  END
> <standard_type>
pIC50

> <# Confs.>
25

> <canonical_smiles>
CS(NC1=CC=C(OCCN(C)CCC2=CC=C(NS(C)(=O)=O)C=C2)C=C1)(=O)=O

> <standard_relation>
=

> <Publication_ID>
nan

> <predicted_activity_value>
nan

> <actual_activity_value>
1.9208187539523751

> <Compound>
Dofetilide

> <standard_units>
uM

> hash
8985363046175769063

$$$$
15
XXILIB    08252103503D 0   0.00000     0.00000

 29 30  0     1  0            999 V2000
    7.1358   -6.3958    2.3897 S   0  0  1  0  0  6           0  0  0
   -2.6418   -0.6360    8.4389 S   0  0  1  0  0  6           0  0  0
    7.7679   -7.1319    3.4672 O   0  0  0  0  0  2           0  0  0
    5.8493   -6.8032    1.8573 O   0  0  0  0  0  2           0  0  0
   -1.2249   -0.8732    8.6350 O   0  0  0  0  0  2           0  0  0
   -3.5447   -0.5138    9.5678 O   0  0  0  0  0  2           0  0  0
    3.5874   -0.9774    0.5643 O   0  0  0  0  0  2           0  0  0
    7.1013   -4.7292    2.7896 N   0  0  0  0  0  3           0  0  0
   -2.8494    0.6946    7.3782 N   0  0  0  0  0  3           0  0  0
    0.0000    0.0000    0.0000 N   0  0  1  0  0  3           0  0  0
    4.3579   -1.9541    1.1282 C   0  0  0  0  0  4           0  0  0
    6.1523   -3.8395    2.1905 C   0  0  0  0  0  4           0  0  0
   -2.2001    0.7378    6.1024 C   0  0  0  0  0  4           0  0  0
   -0.9262    1.0377    3.6112 C   0  0  0  0  0  4           0  0  0
    3.8784   -3.0911    1.7846 C   0  0  0  0  0  4           0  0  0
    5.7381   -1.7555    1.0273 C   0  0  0  0  0  4           0  0  0
    4.7724   -4.0224    2.3248 C   0  0  0  0  0  4           0  0  0
    6.6304   -2.6842    1.5667 C   0  0  0  0  0  4           0  0  0
   -2.8322    1.4278    5.0636 C   0  0  0  0  0  4           0  0  0
   -0.9110    0.2329    5.9048 C   0  0  0  0  0  4           0  0  0
   -2.2064    1.5630    3.8224 C   0  0  0  0  0  4           0  0  0
   -0.2863    0.3691    4.6624 C   0  0  0  0  0  4           0  0  0
    8.2733   -6.3351    1.0278 C   0  0  0  0  0  4           0  0  0
   -3.2735   -1.9276    7.3974 C   0  0  0  0  0  4           0  0  0
    2.1766   -1.1673    0.6740 C   0  0  0  0  0  4           0  0  0
    1.4643   -0.0000   -0.0000 C   0  0  0  0  0  4           0  0  0
   -0.5886    0.0000    1.3450 C   0  0  0  0  0  4           0  0  0
   -0.5121    1.1087   -0.8068 C   0  0  0  0  0  4           0  0  0
   -0.2544    1.1755    2.2742 C   0  0  0  0  0  4           0  0  0
  1  3  2  0     0  0
  1  4  2  0     0  0
  1  8  1  0     0  0
  1 23  1  0     0  0
  2  5  2  0     0  0
  2  6  2  0     0  0
  2  9  1  0     0  0
  2 24  1  0     0  0
  7 11  1  0     0  0
  7 25  1  0     0  0
  8 12  1  0     0  0
  9 13  1  0     0  0
 10 26  1  0     0  0
 10 27  1  0     0  0
 10 28  1  0     0  0
 11 15  2  0     0  0
 11 16  1  0     0  0
 12 17  2  0     0  0
 12 18  1  0     0  0
 13 19  2  0     0  0
 13 20  1  0     0  0
 14 21  2  0     0  0
 14 22  1  0     0  0
 14 29  1  0     0  0
 15 17  1  0     0  0
 16 18  2  0     0  0
 19 21  1  0     0  0
 20 22  2  0     0  0
 25 26  1  0     0  0
 27 29  1  0     0  0
M  END
> <standard_type>
pIC50

> <# Confs.>
25

> <canonical_smiles>
CS(NC1=CC=C(OCCN(C)CCC2=CC=C(NS(C)(=O)=O)C=C2)C=C1)(=O)=O

> <standard_relation>
=

> <Publication_ID>
nan

> <predicted_activity_value>
nan

> <actual_activity_value>
1.9208187539523751

> <Compound>
Dofetilide

> <standard_units>
uM

> hash
8985363046175769063

$$$$
15
XXILIB    08252103503D 0   0.00000     0.00000

 29 30  0     1  0            999 V2000
    7.1358   -6.3958    2.3897 S   0  0  1  0  0  6           0  0  0
   -3.2062    2.1297    8.2452 S   0  0  1  0  0  6           0  0  0
    7.7679   -7.1319    3.4672 O   0  0  0  0  0  2           0  0  0
    5.8493   -6.8032    1.8573 O   0  0  0  0  0  2           0  0  0
   -3.9410    3.0367    7.3850 O   0  0  0  0  0  2           0  0  0
   -3.6897    1.7984    9.5723 O   0  0  0  0  0  2           0  0  0
    3.5874   -0.9774    0.5643 O   0  0  0  0  0  2           0  0  0
    7.1013   -4.7292    2.7896 N   0  0  0  0  0  3           0  0  0
   -2.8494    0.6946    7.3782 N   0  0  0  0  0  3           0  0  0
    0.0000    0.0000    0.0000 N   0  0  1  0  0  3           0  0  0
    4.3579   -1.9541    1.1282 C   0  0  0  0  0  4           0  0  0
    6.1523   -3.8395    2.1905 C   0  0  0  0  0  4           0  0  0
   -2.2001    0.7378    6.1024 C   0  0  0  0  0  4           0  0  0
   -0.9262    1.0377    3.6112 C   0  0  0  0  0  4           0  0  0
    3.8784   -3.0911    1.7846 C   0  0  0  0  0  4           0  0  0
    5.7381   -1.7555    1.0273 C   0  0  0  0  0  4           0  0  0
    4.7724   -4.0224    2.3248 C   0  0  0  0  0  4           0  0  0
    6.6304   -2.6842    1.5667 C   0  0  0  0  0  4           0  0  0
   -2.8322    1.4278    5.0636 C   0  0  0  0  0  4           0  0  0
   -0.9110    0.2329    5.9048 C   0  0  0  0  0  4           0  0  0
   -2.2064    1.5630    3.8224 C   0  0  0  0  0  4           0  0  0
   -0.2863    0.3691    4.6624 C   0  0  0  0  0  4           0  0  0
    8.2733   -6.3351    1.0278 C   0  0  0  0  0  4           0  0  0
   -1.5584    2.7648    8.4290 C   0  0  0  0  0  4           0  0  0
    2.1766   -1.1673    0.6740 C   0  0  0  0  0  4           0  0  0
    1.4643   -0.0000   -0.0000 C   0  0  0  0  0  4           0  0  0
   -0.5886    0.0000    1.3450 C   0  0  0  0  0  4           0  0  0
   -0.5121    1.1087   -0.8068 C   0  0  0  0  0  4           0  0  0
   -0.2544    1.1755    2.2742 C   0  0  0  0  0  4           0  0  0
  1  3  2  0     0  0
  1  4  2  0     0  0
  1  8  1  0     0  0
  1 23  1  0     0  0
  2  5  2  0     0  0
  2  6  2  0     0  0
  2  9  1  0     0  0
  2 24  1  0     0  0
  7 11  1  0     0  0
  7 25  1  0     0  0
  8 12  1  0     0  0
  9 13  1  0     0  0
 10 26  1  0     0  0
 10 27  1  0     0  0
 10 28  1  0     0  0
 11 15  2  0     0  0
 11 16  1  0     0  0
 12 17  2  0     0  0
 12 18  1  0     0  0
 13 19  2  0     0  0
 13 20  1  0     0  0
 14 21  2  0     0  0
 14 22  1  0     0  0
 14 29  1  0     0  0
 15 17  1  0     0  0
 16 18  2  0     0  0
 19 21  1  0     0  0
 20 22  2  0     0  0
 25 26  1  0     0  0
 27 29  1  0     0  0
M  END
> <standard_type>
pIC50

> <# Confs.>
25

> <canonical_smiles>
CS(NC1=CC=C(OCCN(C)CCC2=CC=C(NS(C)(=O)=O)C=C2)C=C1)(=O)=O

> <standard_relation>
=

> <Publication_ID>
nan

> <predicted_activity_value>
nan

> <actual_activity_value>
1.9208187539523751

> <Compound>
Dofetilide

> <standard_units>
uM

> hash
8985363046175769063

$$$$
15
XXILIB    08252103503D 0   0.00000     0.00000

 29 30  0     1  0            999 V2000
    7.1358    1.1283   -6.7338 S   0  0  1  0  0  6           0  0  0
   -4.4695   -0.5159    7.6391 S   0  0  1  0  0  6           0  0  0
    7.7679    0.5633   -7.9100 O   0  0  0  0  0  2           0  0  0
    5.8493    1.7931   -6.8205 O   0  0  0  0  0  2           0  0  0
   -5.1327   -1.5895    6.9250 O   0  0  0  0  0  2           0  0  0
   -4.7608   -0.2525    9.0357 O   0  0  0  0  0  2           0  0  0
    3.5874   -0.0000   -1.1286 O   0  0  0  0  0  2           0  0  0
    7.1013   -0.0513   -5.4904 N   0  0  0  0  0  3           0  0  0
   -2.7758   -0.6482    7.4104 N   0  0  0  0  0  3           0  0  0
    0.0000   -0.0000    0.0000 N   0  0  1  0  0  3           0  0  0
    4.3579    0.0000   -2.2564 C   0  0  0  0  0  4           0  0  0
    6.1523    0.0227   -4.4204 C   0  0  0  0  0  4           0  0  0
   -2.2068   -0.7420    6.0995 C   0  0  0  0  0  4           0  0  0
   -0.9262   -1.0377    3.6112 C   0  0  0  0  0  4           0  0  0
    3.8784    0.0000   -3.5692 C   0  0  0  0  0  4           0  0  0
    5.7381   -0.0119   -2.0339 C   0  0  0  0  0  4           0  0  0
    4.7724   -0.0021   -4.6459 C   0  0  0  0  0  4           0  0  0
    6.6304   -0.0147   -3.1079 C   0  0  0  0  0  4           0  0  0
   -0.9234   -0.2249    5.8989 C   0  0  0  0  0  4           0  0  0
   -2.8323   -1.4437    5.0641 C   0  0  0  0  0  4           0  0  0
   -0.2944   -0.3581    4.6591 C   0  0  0  0  0  4           0  0  0
   -2.2015   -1.5761    3.8242 C   0  0  0  0  0  4           0  0  0
    8.2733    2.2774   -6.0003 C   0  0  0  0  0  4           0  0  0
   -4.7570    0.9927    6.7482 C   0  0  0  0  0  4           0  0  0
    2.1766    0.0000   -1.3479 C   0  0  0  0  0  4           0  0  0
    1.4643    0.0000    0.0000 C   0  0  0  0  0  4           0  0  0
   -0.5886   -0.0000    1.3450 C   0  0  0  0  0  4           0  0  0
   -0.5121    1.1087   -0.8068 C   0  0  0  0  0  4           0  0  0
   -0.2544   -1.1755    2.2742 C   0  0  0  0  0  4           0  0  0
  1  3  2  0     0  0
  1  4  2  0     0  0
  1  8  1  0     0  0
  1 23  1  0     0  0
  2  5  2  0     0  0
  2  6  2  0     0  0
  2  9  1  0     0  0
  2 24  1  0     0  0
  7 11  1  0     0  0
  7 25  1  0     0  0
  8 12  1  0     0  0
  9 13  1  0     0  0
 10 26  1  0     0  0
 10 27  1  0     0  0
 10 28  1  0     0  0
 11 15  2  0     0  0
 11 16  1  0     0  0
 12 17  2  0     0  0
 12 18  1  0     0  0
 13 19  2  0     0  0
 13 20  1  0     0  0
 14 21  2  0     0  0
 14 22  1  0     0  0
 14 29  1  0     0  0
 15 17  1  0     0  0
 16 18  2  0     0  0
 19 21  1  0     0  0
 20 22  2  0     0  0
 25 26  1  0     0  0
 27 29  1  0     0  0
M  END
> <standard_type>
pIC50

> <# Confs.>
25

> <canonical_smiles>
CS(NC1=CC=C(OCCN(C)CCC2=CC=C(NS(C)(=O)=O)C=C2)C=C1)(=O)=O

> <standard_relation>
=

> <Publication_ID>
nan

> <predicted_activity_value>
nan

> <actual_activity_value>
1.9208187539523751

> <Compound>
Dofetilide

> <standard_units>
uM

> hash
8985363046175769063

$$$$
15
XXILIB    08252103503D 0   0.00000     0.00000

 29 30  0     1  0            999 V2000
    7.1358    5.2674    4.3440 S   0  0  1  0  0  6           0  0  0
   -2.0224   -1.3837    8.7632 S   0  0  1  0  0  6           0  0  0
    7.7679    6.5686    4.4429 O   0  0  0  0  0  2           0  0  0
    5.8493    5.0101    4.9631 O   0  0  0  0  0  2           0  0  0
   -0.6387   -0.9556    8.8300 O   0  0  0  0  0  2           0  0  0
   -2.8912   -1.2952    9.9217 O   0  0  0  0  0  2           0  0  0
    3.5874    0.9774    0.5643 O   0  0  0  0  0  2           0  0  0
    7.1013    4.7804    2.7008 N   0  0  0  0  0  3           0  0  0
   -2.7758   -0.6482    7.4104 N   0  0  0  0  0  3           0  0  0
    0.0000   -0.0000    0.0000 N   0  0  1  0  0  3           0  0  0
    4.3579    1.9541    1.1282 C   0  0  0  0  0  4           0  0  0
    6.1523    3.8168    2.2299 C   0  0  0  0  0  4           0  0  0
   -2.2068   -0.7420    6.0995 C   0  0  0  0  0  4           0  0  0
   -0.9262   -1.0377    3.6112 C   0  0  0  0  0  4           0  0  0
    3.8784    3.0911    1.7846 C   0  0  0  0  0  4           0  0  0
    5.7381    1.7674    1.0067 C   0  0  0  0  0  4           0  0  0
    4.7724    4.0245    2.3211 C   0  0  0  0  0  4           0  0  0
    6.6304    2.6989    1.5412 C   0  0  0  0  0  4           0  0  0
   -0.9234   -0.2249    5.8989 C   0  0  0  0  0  4           0  0  0
   -2.8323   -1.4437    5.0641 C   0  0  0  0  0  4           0  0  0
   -0.2944   -0.3581    4.6591 C   0  0  0  0  0  4           0  0  0
   -2.2015   -1.5761    3.8242 C   0  0  0  0  0  4           0  0  0
    8.2733    4.0577    4.9725 C   0  0  0  0  0  4           0  0  0
   -2.0465   -3.0724    8.2154 C   0  0  0  0  0  4           0  0  0
    2.1766    1.1673    0.6740 C   0  0  0  0  0  4           0  0  0
    1.4643   -0.0000    0.0000 C   0  0  0  0  0  4           0  0  0
   -0.5886   -0.0000    1.3450 C   0  0  0  0  0  4           0  0  0
   -0.5121    1.1087   -0.8068 C   0  0  0  0  0  4           0  0  0
   -0.2544   -1.1755    2.2742 C   0  0  0  0  0  4           0  0  0
  1  3  2  0     0  0
  1  4  2  0     0  0
  1  8  1  0     0  0
  1 23  1  0     0  0
  2  5  2  0     0  0
  2  6  2  0     0  0
  2  9  1  0     0  0
  2 24  1  0     0  0
  7 11  1  0     0  0
  7 25  1  0     0  0
  8 12  1  0     0  0
  9 13  1  0     0  0
 10 26  1  0     0  0
 10 27  1  0     0  0
 10 28  1  0     0  0
 11 15  2  0     0  0
 11 16  1  0     0  0
 12 17  2  0     0  0
 12 18  1  0     0  0
 13 19  2  0     0  0
 13 20  1  0     0  0
 14 21  2  0     0  0
 14 22  1  0     0  0
 14 29  1  0     0  0
 15 17  1  0     0  0
 16 18  2  0     0  0
 19 21  1  0     0  0
 20 22  2  0     0  0
 25 26  1  0     0  0
 27 29  1  0     0  0
M  END
> <standard_type>
pIC50

> <# Confs.>
25

> <canonical_smiles>
CS(NC1=CC=C(OCCN(C)CCC2=CC=C(NS(C)(=O)=O)C=C2)C=C1)(=O)=O

> <standard_relation>
=

> <Publication_ID>
nan

> <predicted_activity_value>
nan

> <actual_activity_value>
1.9208187539523751

> <Compound>
Dofetilide

> <standard_units>
uM

> hash
8985363046175769063

$$$$
15
XXILIB    08252103503D 0   0.00000     0.00000

 29 30  0     1  0            999 V2000
    7.1358    1.1283   -6.7338 S   0  0  1  0  0  6           0  0  0
   -2.8360   -0.9788    8.0711 S   0  0  1  0  0  6           0  0  0
    7.7679    0.5633   -7.9100 O   0  0  0  0  0  2           0  0  0
    5.8493    1.7931   -6.8205 O   0  0  0  0  0  2           0  0  0
   -1.6398   -1.7904    7.9581 O   0  0  0  0  0  2           0  0  0
   -3.5799   -0.9092    9.3146 O   0  0  0  0  0  2           0  0  0
    3.5874   -0.0000   -1.1286 O   0  0  0  0  0  2           0  0  0
    7.1013   -0.0513   -5.4904 N   0  0  0  0  0  3           0  0  0
   -2.5004    0.6029    7.5017 N   0  0  0  0  0  3           0  0  0
    0.0000    0.0000   -0.0000 N   0  0  1  0  0  3           0  0  0
    4.3579    0.0000   -2.2564 C   0  0  0  0  0  4           0  0  0
    6.1523    0.0227   -4.4204 C   0  0  0  0  0  4           0  0  0
   -1.9226    0.8218    6.2097 C   0  0  0  0  0  4           0  0  0
   -0.7817    1.0377    3.6463 C   0  0  0  0  0  4           0  0  0
    3.8784    0.0000   -3.5692 C   0  0  0  0  0  4           0  0  0
    5.7381   -0.0119   -2.0339 C   0  0  0  0  0  4           0  0  0
    4.7724   -0.0021   -4.6459 C   0  0  0  0  0  4           0  0  0
    6.6304   -0.0147   -3.1079 C   0  0  0  0  0  4           0  0  0
   -0.6696    0.2610    5.9438 C   0  0  0  0  0  4           0  0  0
   -2.6221    1.4561    5.1782 C   0  0  0  0  0  4           0  0  0
   -0.0968    0.3819    4.6759 C   0  0  0  0  0  4           0  0  0
   -2.0475    1.5761    3.9102 C   0  0  0  0  0  4           0  0  0
    8.2733    2.2774   -6.0003 C   0  0  0  0  0  4           0  0  0
   -3.9705   -1.4981    6.8079 C   0  0  0  0  0  4           0  0  0
    2.1766    0.0000   -1.3479 C   0  0  0  0  0  4           0  0  0
    1.4643    0.0000    0.0000 C   0  0  0  0  0  4           0  0  0
   -0.5348    0.0000    1.3685 C   0  0  0  0  0  4           0  0  0
   -0.5284   -1.1589   -0.7291 C   0  0  0  0  0  4           0  0  0
   -0.1638    1.1755    2.2836 C   0  0  0  0  0  4           0  0  0
  1  3  2  0     0  0
  1  4  2  0     0  0
  1  8  1  0     0  0
  1 23  1  0     0  0
  2  5  2  0     0  0
  2  6  2  0     0  0
  2  9  1  0     0  0
  2 24  1  0     0  0
  7 11  1  0     0  0
  7 25  1  0     0  0
  8 12  1  0     0  0
  9 13  1  0     0  0
 10 26  1  0     0  0
 10 27  1  0     0  0
 10 28  1  0     0  0
 11 15  2  0     0  0
 11 16  1  0     0  0
 12 17  2  0     0  0
 12 18  1  0     0  0
 13 19  2  0     0  0
 13 20  1  0     0  0
 14 21  2  0     0  0
 14 22  1  0     0  0
 14 29  1  0     0  0
 15 17  1  0     0  0
 16 18  2  0     0  0
 19 21  1  0     0  0
 20 22  2  0     0  0
 25 26  1  0     0  0
 27 29  1  0     0  0
M  END
> <standard_type>
pIC50

> <# Confs.>
25

> <canonical_smiles>
CS(NC1=CC=C(OCCN(C)CCC2=CC=C(NS(C)(=O)=O)C=C2)C=C1)(=O)=O

> <standard_relation>
=

> <Publication_ID>
nan

> <predicted_activity_value>
nan

> <actual_activity_value>
1.9208187539523751

> <Compound>
Dofetilide

> <standard_units>
uM

> hash
8985363046175769063

$$$$
15
XXILIB    08252103503D 0   0.00000     0.00000

 29 30  0     1  0            999 V2000
    7.1358    1.1283   -6.7338 S   0  0  1  0  0  6           0  0  0
   -3.5504    1.7550    8.2148 S   0  0  1  0  0  6           0  0  0
    7.7679    0.5633   -7.9100 O   0  0  0  0  0  2           0  0  0
    5.8493    1.7931   -6.8205 O   0  0  0  0  0  2           0  0  0
   -4.6144    2.0725    7.2823 O   0  0  0  0  0  2           0  0  0
   -3.8423    1.3768    9.5846 O   0  0  0  0  0  2           0  0  0
    3.5874   -0.0000   -1.1286 O   0  0  0  0  0  2           0  0  0
    7.1013   -0.0513   -5.4904 N   0  0  0  0  0  3           0  0  0
   -2.5004    0.6029    7.5017 N   0  0  0  0  0  3           0  0  0
    0.0000    0.0000   -0.0000 N   0  0  1  0  0  3           0  0  0
    4.3579    0.0000   -2.2564 C   0  0  0  0  0  4           0  0  0
    6.1523    0.0227   -4.4204 C   0  0  0  0  0  4           0  0  0
   -1.9226    0.8218    6.2097 C   0  0  0  0  0  4           0  0  0
   -0.7817    1.0377    3.6463 C   0  0  0  0  0  4           0  0  0
    3.8784    0.0000   -3.5692 C   0  0  0  0  0  4           0  0  0
    5.7381   -0.0119   -2.0339 C   0  0  0  0  0  4           0  0  0
    4.7724   -0.0021   -4.6459 C   0  0  0  0  0  4           0  0  0
    6.6304   -0.0147   -3.1079 C   0  0  0  0  0  4           0  0  0
   -0.6696    0.2610    5.9438 C   0  0  0  0  0  4           0  0  0
   -2.6221    1.4561    5.1782 C   0  0  0  0  0  4           0  0  0
   -0.0968    0.3819    4.6759 C   0  0  0  0  0  4           0  0  0
   -2.0475    1.5761    3.9102 C   0  0  0  0  0  4           0  0  0
    8.2733    2.2774   -6.0003 C   0  0  0  0  0  4           0  0  0
   -2.4451    3.1431    8.2766 C   0  0  0  0  0  4           0  0  0
    2.1766    0.0000   -1.3479 C   0  0  0  0  0  4           0  0  0
    1.4643    0.0000    0.0000 C   0  0  0  0  0  4           0  0  0
   -0.5348    0.0000    1.3685 C   0  0  0  0  0  4           0  0  0
   -0.5284   -1.1589   -0.7291 C   0  0  0  0  0  4           0  0  0
   -0.1638    1.1755    2.2836 C   0  0  0  0  0  4           0  0  0
  1  3  2  0     0  0
  1  4  2  0     0  0
  1  8  1  0     0  0
  1 23  1  0     0  0
  2  5  2  0     0  0
  2  6  2  0     0  0
  2  9  1  0     0  0
  2 24  1  0     0  0
  7 11  1  0     0  0
  7 25  1  0     0  0
  8 12  1  0     0  0
  9 13  1  0     0  0
 10 26  1  0     0  0
 10 27  1  0     0  0
 10 28  1  0     0  0
 11 15  2  0     0  0
 11 16  1  0     0  0
 12 17  2  0     0  0
 12 18  1  0     0  0
 13 19  2  0     0  0
 13 20  1  0     0  0
 14 21  2  0     0  0
 14 22  1  0     0  0
 14 29  1  0     0  0
 15 17  1  0     0  0
 16 18  2  0     0  0
 19 21  1  0     0  0
 20 22  2  0     0  0
 25 26  1  0     0  0
 27 29  1  0     0  0
M  END
> <standard_type>
pIC50

> <# Confs.>
25

> <canonical_smiles>
CS(NC1=CC=C(OCCN(C)CCC2=CC=C(NS(C)(=O)=O)C=C2)C=C1)(=O)=O

> <standard_relation>
=

> <Publication_ID>
nan

> <predicted_activity_value>
nan

> <actual_activity_value>
1.9208187539523751

> <Compound>
Dofetilide

> <standard_units>
uM

> hash
8985363046175769063

$$$$
15
XXILIB    08252103503D 0   0.00000     0.00000

 29 30  0     1  0            999 V2000
    7.1506   -1.4013   -6.5456 S   0  0  1  0  0  6           0  0  0
   -4.4695   -0.5159    7.6391 S   0  0  1  0  0  6           0  0  0
    5.8258   -1.6314   -7.0883 O   0  0  0  0  0  2           0  0  0
    8.3101   -1.3092   -7.4126 O   0  0  0  0  0  2           0  0  0
   -4.7308    0.0856    8.9323 O   0  0  0  0  0  2           0  0  0
   -5.0926   -0.0022    6.4339 O   0  0  0  0  0  2           0  0  0
    3.5874   -0.0000   -1.1286 O   0  0  0  0  0  2           0  0  0
    7.1013   -0.0513   -5.4904 N   0  0  0  0  0  3           0  0  0
   -2.7758   -0.6482    7.4104 N   0  0  0  0  0  3           0  0  0
    0.0000   -0.0000    0.0000 N   0  0  1  0  0  3           0  0  0
    4.3579    0.0000   -2.2564 C   0  0  0  0  0  4           0  0  0
    6.1523    0.0227   -4.4204 C   0  0  0  0  0  4           0  0  0
   -2.2068   -0.7420    6.0995 C   0  0  0  0  0  4           0  0  0
   -0.9262   -1.0377    3.6112 C   0  0  0  0  0  4           0  0  0
    3.8784    0.0000   -3.5692 C   0  0  0  0  0  4           0  0  0
    5.7381   -0.0119   -2.0339 C   0  0  0  0  0  4           0  0  0
    4.7724   -0.0021   -4.6459 C   0  0  0  0  0  4           0  0  0
    6.6304   -0.0147   -3.1079 C   0  0  0  0  0  4           0  0  0
   -0.9234   -0.2249    5.8989 C   0  0  0  0  0  4           0  0  0
   -2.8323   -1.4437    5.0641 C   0  0  0  0  0  4           0  0  0
   -0.2944   -0.3581    4.6591 C   0  0  0  0  0  4           0  0  0
   -2.2015   -1.5761    3.8242 C   0  0  0  0  0  4           0  0  0
    7.4833   -2.6766   -5.3560 C   0  0  0  0  0  4           0  0  0
   -4.8749   -2.2411    7.7465 C   0  0  0  0  0  4           0  0  0
    2.1766    0.0000   -1.3479 C   0  0  0  0  0  4           0  0  0
    1.4643    0.0000    0.0000 C   0  0  0  0  0  4           0  0  0
   -0.5886   -0.0000    1.3450 C   0  0  0  0  0  4           0  0  0
   -0.5121    1.1087   -0.8068 C   0  0  0  0  0  4           0  0  0
   -0.2544   -1.1755    2.2742 C   0  0  0  0  0  4           0  0  0
  1  3  2  0     0  0
  1  4  2  0     0  0
  1  8  1  0     0  0
  1 23  1  0     0  0
  2  5  2  0     0  0
  2  6  2  0     0  0
  2  9  1  0     0  0
  2 24  1  0     0  0
  7 11  1  0     0  0
  7 25  1  0     0  0
  8 12  1  0     0  0
  9 13  1  0     0  0
 10 26  1  0     0  0
 10 27  1  0     0  0
 10 28  1  0     0  0
 11 15  2  0     0  0
 11 16  1  0     0  0
 12 17  2  0     0  0
 12 18  1  0     0  0
 13 19  2  0     0  0
 13 20  1  0     0  0
 14 21  2  0     0  0
 14 22  1  0     0  0
 14 29  1  0     0  0
 15 17  1  0     0  0
 16 18  2  0     0  0
 19 21  1  0     0  0
 20 22  2  0     0  0
 25 26  1  0     0  0
 27 29  1  0     0  0
M  END
> <standard_type>
pIC50

> <# Confs.>
25

> <canonical_smiles>
CS(NC1=CC=C(OCCN(C)CCC2=CC=C(NS(C)(=O)=O)C=C2)C=C1)(=O)=O

> <standard_relation>
=

> <Publication_ID>
nan

> <predicted_activity_value>
nan

> <actual_activity_value>
1.9208187539523751

> <Compound>
Dofetilide

> <standard_units>
uM

> hash
8985363046175769063

$$$$
15
XXILIB    08252103503D 0   0.00000     0.00000

 29 30  0     1  0            999 V2000
    7.1506   -4.9680    4.4864 S   0  0  1  0  0  6           0  0  0
   -3.8752    1.7550    8.0655 S   0  0  1  0  0  6           0  0  0
    5.8258   -5.3229    4.9570 O   0  0  0  0  0  2           0  0  0
    8.3101   -5.7649    4.8401 O   0  0  0  0  0  2           0  0  0
   -3.9359    1.5716    9.5025 O   0  0  0  0  0  2           0  0  0
   -3.6252    3.0615    7.4865 O   0  0  0  0  0  2           0  0  0
    3.5874   -0.9774    0.5643 O   0  0  0  0  0  2           0  0  0
    7.1013   -4.7292    2.7896 N   0  0  0  0  0  3           0  0  0
   -2.7975    0.6029    7.3948 N   0  0  0  0  0  3           0  0  0
    0.0000    0.0000   -0.0000 N   0  0  1  0  0  3           0  0  0
    4.3579   -1.9541    1.1282 C   0  0  0  0  0  4           0  0  0
    6.1523   -3.8395    2.1905 C   0  0  0  0  0  4           0  0  0
   -2.1686    0.8218    6.1269 C   0  0  0  0  0  4           0  0  0
   -0.9262    1.0377    3.6112 C   0  0  0  0  0  4           0  0  0
    3.8784   -3.0911    1.7846 C   0  0  0  0  0  4           0  0  0
    5.7381   -1.7555    1.0273 C   0  0  0  0  0  4           0  0  0
    4.7724   -4.0224    2.3248 C   0  0  0  0  0  4           0  0  0
    6.6304   -2.6842    1.5667 C   0  0  0  0  0  4           0  0  0
   -0.9060    0.2610    5.9113 C   0  0  0  0  0  4           0  0  0
   -2.8264    1.4561    5.0684 C   0  0  0  0  0  4           0  0  0
   -0.2830    0.3819    4.6673 C   0  0  0  0  0  4           0  0  0
   -2.2015    1.5761    3.8242 C   0  0  0  0  0  4           0  0  0
    7.4833   -3.3001    4.9961 C   0  0  0  0  0  4           0  0  0
   -5.3958    1.1549    7.3728 C   0  0  0  0  0  4           0  0  0
    2.1766   -1.1673    0.6740 C   0  0  0  0  0  4           0  0  0
    1.4643   -0.0000   -0.0000 C   0  0  0  0  0  4           0  0  0
   -0.5886    0.0000    1.3450 C   0  0  0  0  0  4           0  0  0
   -0.5121    1.1087   -0.8068 C   0  0  0  0  0  4           0  0  0
   -0.2544    1.1755    2.2742 C   0  0  0  0  0  4           0  0  0
  1  3  2  0     0  0
  1  4  2  0     0  0
  1  8  1  0     0  0
  1 23  1  0     0  0
  2  5  2  0     0  0
  2  6  2  0     0  0
  2  9  1  0     0  0
  2 24  1  0     0  0
  7 11  1  0     0  0
  7 25  1  0     0  0
  8 12  1  0     0  0
  9 13  1  0     0  0
 10 26  1  0     0  0
 10 27  1  0     0  0
 10 28  1  0     0  0
 11 15  2  0     0  0
 11 16  1  0     0  0
 12 17  2  0     0  0
 12 18  1  0     0  0
 13 19  2  0     0  0
 13 20  1  0     0  0
 14 21  2  0     0  0
 14 22  1  0     0  0
 14 29  1  0     0  0
 15 17  1  0     0  0
 16 18  2  0     0  0
 19 21  1  0     0  0
 20 22  2  0     0  0
 25 26  1  0     0  0
 27 29  1  0     0  0
M  END
> <standard_type>
pIC50

> <# Confs.>
25

> <canonical_smiles>
CS(NC1=CC=C(OCCN(C)CCC2=CC=C(NS(C)(=O)=O)C=C2)C=C1)(=O)=O

> <standard_relation>
=

> <Publication_ID>
nan

> <predicted_activity_value>
nan

> <actual_activity_value>
1.9208187539523751

> <Compound>
Dofetilide

> <standard_units>
uM

> hash
8985363046175769063

$$$$
15
XXILIB    08252103503D 0   0.00000     0.00000

 29 30  0     1  0            999 V2000
    7.1506    6.3694    2.0592 S   0  0  1  0  0  6           0  0  0
   -4.4695   -0.5159    7.6391 S   0  0  1  0  0  6           0  0  0
    5.8258    6.9543    2.1313 O   0  0  0  0  0  2           0  0  0
    8.3101    7.0741    2.5725 O   0  0  0  0  0  2           0  0  0
   -4.7308    0.0856    8.9323 O   0  0  0  0  0  2           0  0  0
   -5.0926   -0.0022    6.4339 O   0  0  0  0  0  2           0  0  0
    3.5874    0.9774    0.5643 O   0  0  0  0  0  2           0  0  0
    7.1013    4.7804    2.7008 N   0  0  0  0  0  3           0  0  0
   -2.7758   -0.6482    7.4104 N   0  0  0  0  0  3           0  0  0
    0.0000   -0.0000    0.0000 N   0  0  1  0  0  3           0  0  0
    4.3579    1.9541    1.1282 C   0  0  0  0  0  4           0  0  0
    6.1523    3.8168    2.2299 C   0  0  0  0  0  4           0  0  0
   -2.2068   -0.7420    6.0995 C   0  0  0  0  0  4           0  0  0
   -0.9262   -1.0377    3.6112 C   0  0  0  0  0  4           0  0  0
    3.8784    3.0911    1.7846 C   0  0  0  0  0  4           0  0  0
    5.7381    1.7674    1.0067 C   0  0  0  0  0  4           0  0  0
    4.7724    4.0245    2.3211 C   0  0  0  0  0  4           0  0  0
    6.6304    2.6989    1.5412 C   0  0  0  0  0  4           0  0  0
   -0.9234   -0.2249    5.8989 C   0  0  0  0  0  4           0  0  0
   -2.8323   -1.4437    5.0641 C   0  0  0  0  0  4           0  0  0
   -0.2944   -0.3581    4.6591 C   0  0  0  0  0  4           0  0  0
   -2.2015   -1.5761    3.8242 C   0  0  0  0  0  4           0  0  0
    7.4833    5.9768    0.3600 C   0  0  0  0  0  4           0  0  0
   -4.8749   -2.2411    7.7465 C   0  0  0  0  0  4           0  0  0
    2.1766    1.1673    0.6740 C   0  0  0  0  0  4           0  0  0
    1.4643   -0.0000    0.0000 C   0  0  0  0  0  4           0  0  0
   -0.5886   -0.0000    1.3450 C   0  0  0  0  0  4           0  0  0
   -0.5121    1.1087   -0.8068 C   0  0  0  0  0  4           0  0  0
   -0.2544   -1.1755    2.2742 C   0  0  0  0  0  4           0  0  0
  1  3  2  0     0  0
  1  4  2  0     0  0
  1  8  1  0     0  0
  1 23  1  0     0  0
  2  5  2  0     0  0
  2  6  2  0     0  0
  2  9  1  0     0  0
  2 24  1  0     0  0
  7 11  1  0     0  0
  7 25  1  0     0  0
  8 12  1  0     0  0
  9 13  1  0     0  0
 10 26  1  0     0  0
 10 27  1  0     0  0
 10 28  1  0     0  0
 11 15  2  0     0  0
 11 16  1  0     0  0
 12 17  2  0     0  0
 12 18  1  0     0  0
 13 19  2  0     0  0
 13 20  1  0     0  0
 14 21  2  0     0  0
 14 22  1  0     0  0
 14 29  1  0     0  0
 15 17  1  0     0  0
 16 18  2  0     0  0
 19 21  1  0     0  0
 20 22  2  0     0  0
 25 26  1  0     0  0
 27 29  1  0     0  0
M  END
> <standard_type>
pIC50

> <# Confs.>
25

> <canonical_smiles>
CS(NC1=CC=C(OCCN(C)CCC2=CC=C(NS(C)(=O)=O)C=C2)C=C1)(=O)=O

> <standard_relation>
=

> <Publication_ID>
nan

> <predicted_activity_value>
nan

> <actual_activity_value>
1.9208187539523751

> <Compound>
Dofetilide

> <standard_units>
uM

> hash
8985363046175769063

$$$$
15
XXILIB    08252103503D 0   0.00000     0.00000

 29 30  0     1  0            999 V2000
    7.1506   -1.4013   -6.5456 S   0  0  1  0  0  6           0  0  0
   -3.7077    0.7111    7.8819 S   0  0  1  0  0  6           0  0  0
    5.8258   -1.6314   -7.0883 O   0  0  0  0  0  2           0  0  0
    8.3101   -1.3092   -7.4126 O   0  0  0  0  0  2           0  0  0
   -3.6984    0.8175    9.3280 O   0  0  0  0  0  2           0  0  0
   -3.3803    1.8496    7.0445 O   0  0  0  0  0  2           0  0  0
    3.5874   -0.0000   -1.1286 O   0  0  0  0  0  2           0  0  0
    7.1013   -0.0513   -5.4904 N   0  0  0  0  0  3           0  0  0
   -2.7758   -0.6482    7.4104 N   0  0  0  0  0  3           0  0  0
    0.0000   -0.0000    0.0000 N   0  0  1  0  0  3           0  0  0
    4.3579    0.0000   -2.2564 C   0  0  0  0  0  4           0  0  0
    6.1523    0.0227   -4.4204 C   0  0  0  0  0  4           0  0  0
   -2.2068   -0.7420    6.0995 C   0  0  0  0  0  4           0  0  0
   -0.9262   -1.0377    3.6112 C   0  0  0  0  0  4           0  0  0
    3.8784    0.0000   -3.5692 C   0  0  0  0  0  4           0  0  0
    5.7381   -0.0119   -2.0339 C   0  0  0  0  0  4           0  0  0
    4.7724   -0.0021   -4.6459 C   0  0  0  0  0  4           0  0  0
    6.6304   -0.0147   -3.1079 C   0  0  0  0  0  4           0  0  0
   -0.9234   -0.2249    5.8989 C   0  0  0  0  0  4           0  0  0
   -2.8323   -1.4437    5.0641 C   0  0  0  0  0  4           0  0  0
   -0.2944   -0.3581    4.6591 C   0  0  0  0  0  4           0  0  0
   -2.2015   -1.5761    3.8242 C   0  0  0  0  0  4           0  0  0
    7.4833   -2.6766   -5.3560 C   0  0  0  0  0  4           0  0  0
   -5.3132    0.1377    7.3861 C   0  0  0  0  0  4           0  0  0
    2.1766    0.0000   -1.3479 C   0  0  0  0  0  4           0  0  0
    1.4643    0.0000    0.0000 C   0  0  0  0  0  4           0  0  0
   -0.5886   -0.0000    1.3450 C   0  0  0  0  0  4           0  0  0
   -0.5121    1.1087   -0.8068 C   0  0  0  0  0  4           0  0  0
   -0.2544   -1.1755    2.2742 C   0  0  0  0  0  4           0  0  0
  1  3  2  0     0  0
  1  4  2  0     0  0
  1  8  1  0     0  0
  1 23  1  0     0  0
  2  5  2  0     0  0
  2  6  2  0     0  0
  2  9  1  0     0  0
  2 24  1  0     0  0
  7 11  1  0     0  0
  7 25  1  0     0  0
  8 12  1  0     0  0
  9 13  1  0     0  0
 10 26  1  0     0  0
 10 27  1  0     0  0
 10 28  1  0     0  0
 11 15  2  0     0  0
 11 16  1  0     0  0
 12 17  2  0     0  0
 12 18  1  0     0  0
 13 19  2  0     0  0
 13 20  1  0     0  0
 14 21  2  0     0  0
 14 22  1  0     0  0
 14 29  1  0     0  0
 15 17  1  0     0  0
 16 18  2  0     0  0
 19 21  1  0     0  0
 20 22  2  0     0  0
 25 26  1  0     0  0
 27 29  1  0     0  0
M  END
> <standard_type>
pIC50

> <# Confs.>
25

> <canonical_smiles>
CS(NC1=CC=C(OCCN(C)CCC2=CC=C(NS(C)(=O)=O)C=C2)C=C1)(=O)=O

> <standard_relation>
=

> <Publication_ID>
nan

> <predicted_activity_value>
nan

> <actual_activity_value>
1.9208187539523751

> <Compound>
Dofetilide

> <standard_units>
uM

> hash
8985363046175769063

$$$$
15
XXILIB    08252103503D 0   0.00000     0.00000

 29 30  0     1  0            999 V2000
    7.7417   -1.2705   -6.1418 S   0  0  1  0  0  6           0  0  0
   -2.0224   -1.3837    8.7632 S   0  0  1  0  0  6           0  0  0
    6.6668   -2.1697   -6.5137 O   0  0  0  0  0  2           0  0  0
    8.8114   -0.9566   -7.0701 O   0  0  0  0  0  2           0  0  0
   -0.6387   -0.9556    8.8300 O   0  0  0  0  0  2           0  0  0
   -2.8912   -1.2952    9.9217 O   0  0  0  0  0  2           0  0  0
    3.5874   -0.0000   -1.1286 O   0  0  0  0  0  2           0  0  0
    7.0737    0.1759   -5.5092 N   0  0  0  0  0  3           0  0  0
   -2.7758   -0.6482    7.4104 N   0  0  0  0  0  3           0  0  0
    0.0000   -0.0000    0.0000 N   0  0  1  0  0  3           0  0  0
    4.3579    0.0000   -2.2564 C   0  0  0  0  0  4           0  0  0
    6.1141    0.1501   -4.4465 C   0  0  0  0  0  4           0  0  0
   -2.2068   -0.7420    6.0995 C   0  0  0  0  0  4           0  0  0
   -0.9262   -1.0377    3.6112 C   0  0  0  0  0  4           0  0  0
    4.0041   -0.5683   -3.4833 C   0  0  0  0  0  4           0  0  0
    5.6030    0.6222   -2.1262 C   0  0  0  0  0  4           0  0  0
    4.8845   -0.5047   -4.5692 C   0  0  0  0  0  4           0  0  0
    6.4821    0.6853   -3.2092 C   0  0  0  0  0  4           0  0  0
   -0.9234   -0.2249    5.8989 C   0  0  0  0  0  4           0  0  0
   -2.8323   -1.4437    5.0641 C   0  0  0  0  0  4           0  0  0
   -0.2944   -0.3581    4.6591 C   0  0  0  0  0  4           0  0  0
   -2.2015   -1.5761    3.8242 C   0  0  0  0  0  4           0  0  0
    8.4963   -1.9021   -4.6639 C   0  0  0  0  0  4           0  0  0
   -2.0465   -3.0724    8.2154 C   0  0  0  0  0  4           0  0  0
    2.1766    0.0000   -1.3479 C   0  0  0  0  0  4           0  0  0
    1.4643   -0.0000   -0.0000 C   0  0  0  0  0  4           0  0  0
   -0.5886   -0.0000    1.3450 C   0  0  0  0  0  4           0  0  0
   -0.5121    1.1087   -0.8068 C   0  0  0  0  0  4           0  0  0
   -0.2544   -1.1755    2.2742 C   0  0  0  0  0  4           0  0  0
  1  3  2  0     0  0
  1  4  2  0     0  0
  1  8  1  0     0  0
  1 23  1  0     0  0
  2  5  2  0     0  0
  2  6  2  0     0  0
  2  9  1  0     0  0
  2 24  1  0     0  0
  7 11  1  0     0  0
  7 25  1  0     0  0
  8 12  1  0     0  0
  9 13  1  0     0  0
 10 26  1  0     0  0
 10 27  1  0     0  0
 10 28  1  0     0  0
 11 15  2  0     0  0
 11 16  1  0     0  0
 12 17  2  0     0  0
 12 18  1  0     0  0
 13 19  2  0     0  0
 13 20  1  0     0  0
 14 21  2  0     0  0
 14 22  1  0     0  0
 14 29  1  0     0  0
 15 17  1  0     0  0
 16 18  2  0     0  0
 19 21  1  0     0  0
 20 22  2  0     0  0
 25 26  1  0     0  0
 27 29  1  0     0  0
M  END
> <standard_type>
pIC50

> <# Confs.>
25

> <canonical_smiles>
CS(NC1=CC=C(OCCN(C)CCC2=CC=C(NS(C)(=O)=O)C=C2)C=C1)(=O)=O

> <standard_relation>
=

> <Publication_ID>
nan

> <predicted_activity_value>
nan

> <actual_activity_value>
1.9208187539523751

> <Compound>
Dofetilide

> <standard_units>
uM

> hash
8985363046175769063

$$$$
15
XXILIB    08252103503D 0   0.00000     0.00000

 29 30  0     1  0            999 V2000
    7.7242    1.6956   -6.0292 S   0  0  1  0  0  6           0  0  0
   -2.0475   -0.6032    8.8653 S   0  0  1  0  0  6           0  0  0
    6.7142    1.0180   -6.8186 O   0  0  0  0  0  2           0  0  0
    8.7475    2.5083   -6.6593 O   0  0  0  0  0  2           0  0  0
   -0.9933    0.3903    8.8012 O   0  0  0  0  0  2           0  0  0
   -3.0055   -0.6104    9.9546 O   0  0  0  0  0  2           0  0  0
    3.5874    0.0000   -1.1286 O   0  0  0  0  0  2           0  0  0
    6.9601    2.5845   -4.7784 N   0  0  0  0  0  3           0  0  0
   -2.8711   -0.6493    7.3625 N   0  0  0  0  0  3           0  0  0
    0.0000    0.0000    0.0000 N   0  0  1  0  0  3           0  0  0
    4.3326    0.6164   -2.0932 C   0  0  0  0  0  4           0  0  0
    6.0271    1.9633   -3.8869 C   0  0  0  0  0  4           0  0  0
   -2.1618   -0.8175    6.1299 C   0  0  0  0  0  4           0  0  0
   -0.9262   -1.0377    3.6112 C   0  0  0  0  0  4           0  0  0
    3.9985    0.7032   -3.4476 C   0  0  0  0  0  4           0  0  0
    5.5286    1.1865   -1.6473 C   0  0  0  0  0  4           0  0  0
    4.8492    1.3624   -4.3422 C   0  0  0  0  0  4           0  0  0
    6.3780    1.8438   -2.5396 C   0  0  0  0  0  4           0  0  0
   -2.8149   -1.4640    5.0760 C   0  0  0  0  0  4           0  0  0
   -0.9051   -0.2453    5.9091 C   0  0  0  0  0  4           0  0  0
   -2.1950   -1.5868    3.8306 C   0  0  0  0  0  4           0  0  0
   -0.2863   -0.3691    4.6624 C   0  0  0  0  0  4           0  0  0
    8.5550    0.4765   -5.0414 C   0  0  0  0  0  4           0  0  0
   -1.2898   -2.2082    8.8204 C   0  0  0  0  0  4           0  0  0
    2.1766    0.0000   -1.3479 C   0  0  0  0  0  4           0  0  0
    1.4643    0.0000   -0.0000 C   0  0  0  0  0  4           0  0  0
   -0.5886    0.0000    1.3450 C   0  0  0  0  0  4           0  0  0
   -0.5121    1.1087   -0.8068 C   0  0  0  0  0  4           0  0  0
   -0.2544   -1.1755    2.2742 C   0  0  0  0  0  4           0  0  0
  1  3  2  0     0  0
  1  4  2  0     0  0
  1  8  1  0     0  0
  1 23  1  0     0  0
  2  5  2  0     0  0
  2  6  2  0     0  0
  2  9  1  0     0  0
  2 24  1  0     0  0
  7 11  1  0     0  0
  7 25  1  0     0  0
  8 12  1  0     0  0
  9 13  1  0     0  0
 10 26  1  0     0  0
 10 27  1  0     0  0
 10 28  1  0     0  0
 11 15  2  0     0  0
 11 16  1  0     0  0
 12 17  2  0     0  0
 12 18  1  0     0  0
 13 19  2  0     0  0
 13 20  1  0     0  0
 14 21  2  0     0  0
 14 22  1  0     0  0
 14 29  1  0     0  0
 15 17  1  0     0  0
 16 18  2  0     0  0
 19 21  1  0     0  0
 20 22  2  0     0  0
 25 26  1  0     0  0
 27 29  1  0     0  0
M  END
> <standard_type>
pIC50

> <# Confs.>
25

> <canonical_smiles>
CS(NC1=CC=C(OCCN(C)CCC2=CC=C(NS(C)(=O)=O)C=C2)C=C1)(=O)=O

> <standard_relation>
=

> <Publication_ID>
nan

> <predicted_activity_value>
nan

> <actual_activity_value>
1.9208187539523751

> <Compound>
Dofetilide

> <standard_units>
uM

> hash
8985363046175769063

$$$$
15
XXILIB    08252103503D 0   0.00000     0.00000

 29 30  0     1  0            999 V2000
    7.1506   -1.4013   -6.5456 S   0  0  1  0  0  6           0  0  0
   -2.3031   -0.6360    8.5387 S   0  0  1  0  0  6           0  0  0
    5.8258   -1.6314   -7.0883 O   0  0  0  0  0  2           0  0  0
    8.3101   -1.3092   -7.4126 O   0  0  0  0  0  2           0  0  0
   -3.3876   -0.6950    9.4993 O   0  0  0  0  0  2           0  0  0
   -1.9156   -1.8055    7.7729 O   0  0  0  0  0  2           0  0  0
    3.5874   -0.0000   -1.1286 O   0  0  0  0  0  2           0  0  0
    7.1013   -0.0513   -5.4904 N   0  0  0  0  0  3           0  0  0
   -2.5529    0.6946    7.4871 N   0  0  0  0  0  3           0  0  0
    0.0000    0.0000    0.0000 N   0  0  1  0  0  3           0  0  0
    4.3579    0.0000   -2.2564 C   0  0  0  0  0  4           0  0  0
    6.1523    0.0227   -4.4204 C   0  0  0  0  0  4           0  0  0
   -1.9551    0.7378    6.1865 C   0  0  0  0  0  4           0  0  0
   -0.7817    1.0377    3.6463 C   0  0  0  0  0  4           0  0  0
    3.8784    0.0000   -3.5692 C   0  0  0  0  0  4           0  0  0
    5.7381   -0.0119   -2.0339 C   0  0  0  0  0  4           0  0  0
    4.7724   -0.0021   -4.6459 C   0  0  0  0  0  4           0  0  0
    6.6304   -0.0147   -3.1079 C   0  0  0  0  0  4           0  0  0
   -2.6282    1.4278    5.1737 C   0  0  0  0  0  4           0  0  0
   -0.6749    0.2329    5.9376 C   0  0  0  0  0  4           0  0  0
   -2.0524    1.5630    3.9086 C   0  0  0  0  0  4           0  0  0
   -0.1003    0.3691    4.6711 C   0  0  0  0  0  4           0  0  0
    7.4833   -2.6766   -5.3560 C   0  0  0  0  0  4           0  0  0
   -0.8536   -0.0576    9.3853 C   0  0  0  0  0  4           0  0  0
    2.1766    0.0000   -1.3479 C   0  0  0  0  0  4           0  0  0
    1.4643    0.0000    0.0000 C   0  0  0  0  0  4           0  0  0
   -0.5348   -0.0000    1.3685 C   0  0  0  0  0  4           0  0  0
   -0.5284   -1.1589   -0.7291 C   0  0  0  0  0  4           0  0  0
   -0.1638    1.1755    2.2836 C   0  0  0  0  0  4           0  0  0
  1  3  2  0     0  0
  1  4  2  0     0  0
  1  8  1  0     0  0
  1 23  1  0     0  0
  2  5  2  0     0  0
  2  6  2  0     0  0
  2  9  1  0     0  0
  2 24  1  0     0  0
  7 11  1  0     0  0
  7 25  1  0     0  0
  8 12  1  0     0  0
  9 13  1  0     0  0
 10 26  1  0     0  0
 10 27  1  0     0  0
 10 28  1  0     0  0
 11 15  2  0     0  0
 11 16  1  0     0  0
 12 17  2  0     0  0
 12 18  1  0     0  0
 13 19  2  0     0  0
 13 20  1  0     0  0
 14 21  2  0     0  0
 14 22  1  0     0  0
 14 29  1  0     0  0
 15 17  1  0     0  0
 16 18  2  0     0  0
 19 21  1  0     0  0
 20 22  2  0     0  0
 25 26  1  0     0  0
 27 29  1  0     0  0
M  END
> <standard_type>
pIC50

> <# Confs.>
25

> <canonical_smiles>
CS(NC1=CC=C(OCCN(C)CCC2=CC=C(NS(C)(=O)=O)C=C2)C=C1)(=O)=O

> <standard_relation>
=

> <Publication_ID>
nan

> <predicted_activity_value>
nan

> <actual_activity_value>
1.9208187539523751

> <Compound>
Dofetilide

> <standard_units>
uM

> hash
8985363046175769063

$$$$
15
XXILIB    08252103503D 0   0.00000     0.00000

 29 30  0     1  0            999 V2000
    7.1506   -1.4013   -6.5456 S   0  0  1  0  0  6           0  0  0
   -2.0475   -0.6032    8.8653 S   0  0  1  0  0  6           0  0  0
    5.8258   -1.6314   -7.0883 O   0  0  0  0  0  2           0  0  0
    8.3101   -1.3092   -7.4126 O   0  0  0  0  0  2           0  0  0
   -2.9690   -0.9622    9.9256 O   0  0  0  0  0  2           0  0  0
   -0.7567   -1.2538    8.7417 O   0  0  0  0  0  2           0  0  0
    3.5874   -0.0000   -1.1286 O   0  0  0  0  0  2           0  0  0
    7.1013   -0.0513   -5.4904 N   0  0  0  0  0  3           0  0  0
   -2.8711   -0.6493    7.3625 N   0  0  0  0  0  3           0  0  0
    0.0000    0.0000    0.0000 N   0  0  1  0  0  3           0  0  0
    4.3579    0.0000   -2.2564 C   0  0  0  0  0  4           0  0  0
    6.1523    0.0227   -4.4204 C   0  0  0  0  0  4           0  0  0
   -2.1618   -0.8175    6.1299 C   0  0  0  0  0  4           0  0  0
   -0.9262   -1.0377    3.6112 C   0  0  0  0  0  4           0  0  0
    3.8784    0.0000   -3.5692 C   0  0  0  0  0  4           0  0  0
    5.7381   -0.0119   -2.0339 C   0  0  0  0  0  4           0  0  0
    4.7724   -0.0021   -4.6459 C   0  0  0  0  0  4           0  0  0
    6.6304   -0.0147   -3.1079 C   0  0  0  0  0  4           0  0  0
   -2.8149   -1.4640    5.0760 C   0  0  0  0  0  4           0  0  0
   -0.9051   -0.2453    5.9091 C   0  0  0  0  0  4           0  0  0
   -2.1950   -1.5868    3.8306 C   0  0  0  0  0  4           0  0  0
   -0.2863   -0.3691    4.6624 C   0  0  0  0  0  4           0  0  0
    7.4833   -2.6766   -5.3560 C   0  0  0  0  0  4           0  0  0
   -1.7482    1.1438    8.9690 C   0  0  0  0  0  4           0  0  0
    2.1766    0.0000   -1.3479 C   0  0  0  0  0  4           0  0  0
    1.4643    0.0000    0.0000 C   0  0  0  0  0  4           0  0  0
   -0.5886    0.0000    1.3450 C   0  0  0  0  0  4           0  0  0
   -0.5121    1.1087   -0.8068 C   0  0  0  0  0  4           0  0  0
   -0.2544   -1.1755    2.2742 C   0  0  0  0  0  4           0  0  0
  1  3  2  0     0  0
  1  4  2  0     0  0
  1  8  1  0     0  0
  1 23  1  0     0  0
  2  5  2  0     0  0
  2  6  2  0     0  0
  2  9  1  0     0  0
  2 24  1  0     0  0
  7 11  1  0     0  0
  7 25  1  0     0  0
  8 12  1  0     0  0
  9 13  1  0     0  0
 10 26  1  0     0  0
 10 27  1  0     0  0
 10 28  1  0     0  0
 11 15  2  0     0  0
 11 16  1  0     0  0
 12 17  2  0     0  0
 12 18  1  0     0  0
 13 19  2  0     0  0
 13 20  1  0     0  0
 14 21  2  0     0  0
 14 22  1  0     0  0
 14 29  1  0     0  0
 15 17  1  0     0  0
 16 18  2  0     0  0
 19 21  1  0     0  0
 20 22  2  0     0  0
 25 26  1  0     0  0
 27 29  1  0     0  0
M  END
> <standard_type>
pIC50

> <# Confs.>
25

> <canonical_smiles>
CS(NC1=CC=C(OCCN(C)CCC2=CC=C(NS(C)(=O)=O)C=C2)C=C1)(=O)=O

> <standard_relation>
=

> <Publication_ID>
nan

> <predicted_activity_value>
nan

> <actual_activity_value>
1.9208187539523751

> <Compound>
Dofetilide

> <standard_units>
uM

> hash
8985363046175769063

$$$$
15
XXILIB    08252103503D 0   0.00000     0.00000

 29 30  0     1  0            999 V2000
    7.1506   -4.9680    4.4864 S   0  0  1  0  0  6           0  0  0
   -2.6418   -0.6360    8.4389 S   0  0  1  0  0  6           0  0  0
    5.8258   -5.3229    4.9570 O   0  0  0  0  0  2           0  0  0
    8.3101   -5.7649    4.8401 O   0  0  0  0  0  2           0  0  0
   -3.7638   -0.6950    9.3554 O   0  0  0  0  0  2           0  0  0
   -2.2241   -1.8055    7.6891 O   0  0  0  0  0  2           0  0  0
    3.5874   -0.9774    0.5643 O   0  0  0  0  0  2           0  0  0
    7.1013   -4.7292    2.7896 N   0  0  0  0  0  3           0  0  0
   -2.8494    0.6946    7.3782 N   0  0  0  0  0  3           0  0  0
    0.0000    0.0000    0.0000 N   0  0  1  0  0  3           0  0  0
    4.3579   -1.9541    1.1282 C   0  0  0  0  0  4           0  0  0
    6.1523   -3.8395    2.1905 C   0  0  0  0  0  4           0  0  0
   -2.2001    0.7378    6.1024 C   0  0  0  0  0  4           0  0  0
   -0.9262    1.0377    3.6112 C   0  0  0  0  0  4           0  0  0
    3.8784   -3.0911    1.7846 C   0  0  0  0  0  4           0  0  0
    5.7381   -1.7555    1.0273 C   0  0  0  0  0  4           0  0  0
    4.7724   -4.0224    2.3248 C   0  0  0  0  0  4           0  0  0
    6.6304   -2.6842    1.5667 C   0  0  0  0  0  4           0  0  0
   -2.8322    1.4278    5.0636 C   0  0  0  0  0  4           0  0  0
   -0.9110    0.2329    5.9048 C   0  0  0  0  0  4           0  0  0
   -2.2064    1.5630    3.8224 C   0  0  0  0  0  4           0  0  0
   -0.2863    0.3691    4.6624 C   0  0  0  0  0  4           0  0  0
    7.4833   -3.3001    4.9961 C   0  0  0  0  0  4           0  0  0
   -1.2273   -0.0576    9.3427 C   0  0  0  0  0  4           0  0  0
    2.1766   -1.1673    0.6740 C   0  0  0  0  0  4           0  0  0
    1.4643   -0.0000   -0.0000 C   0  0  0  0  0  4           0  0  0
   -0.5886    0.0000    1.3450 C   0  0  0  0  0  4           0  0  0
   -0.5121    1.1087   -0.8068 C   0  0  0  0  0  4           0  0  0
   -0.2544    1.1755    2.2742 C   0  0  0  0  0  4           0  0  0
  1  3  2  0     0  0
  1  4  2  0     0  0
  1  8  1  0     0  0
  1 23  1  0     0  0
  2  5  2  0     0  0
  2  6  2  0     0  0
  2  9  1  0     0  0
  2 24  1  0     0  0
  7 11  1  0     0  0
  7 25  1  0     0  0
  8 12  1  0     0  0
  9 13  1  0     0  0
 10 26  1  0     0  0
 10 27  1  0     0  0
 10 28  1  0     0  0
 11 15  2  0     0  0
 11 16  1  0     0  0
 12 17  2  0     0  0
 12 18  1  0     0  0
 13 19  2  0     0  0
 13 20  1  0     0  0
 14 21  2  0     0  0
 14 22  1  0     0  0
 14 29  1  0     0  0
 15 17  1  0     0  0
 16 18  2  0     0  0
 19 21  1  0     0  0
 20 22  2  0     0  0
 25 26  1  0     0  0
 27 29  1  0     0  0
M  END
> <standard_type>
pIC50

> <# Confs.>
25

> <canonical_smiles>
CS(NC1=CC=C(OCCN(C)CCC2=CC=C(NS(C)(=O)=O)C=C2)C=C1)(=O)=O

> <standard_relation>
=

> <Publication_ID>
nan

> <predicted_activity_value>
nan

> <actual_activity_value>
1.9208187539523751

> <Compound>
Dofetilide

> <standard_units>
uM

> hash
8985363046175769063

$$$$
27
XXILIB    08252103503D 0   0.00000     0.00000

 17 17  0     1  0            999 V2000
    0.1679   -0.5224    2.3370 O   0  0  0  0  0  2           0  0  0
   -1.6986    0.6422    1.5870 N   0  0  0  0  0  3           0  0  0
    1.4686    0.0000    0.0000 N   0  0  2  0  0  3           0  0  0
   -2.3893    0.7972    2.8037 C   0  0  0  0  0  4           0  0  0
   -3.2033    1.9534    2.9397 C   0  0  0  0  0  4           0  0  0
   -2.3125   -0.1248    3.8773 C   0  0  0  0  0  4           0  0  0
   -3.9142    2.1728    4.1302 C   0  0  0  0  0  4           0  0  0
   -3.0446    0.1317    5.0528 C   0  0  0  0  0  4           0  0  0
   -3.8357    1.2678    5.1798 C   0  0  0  0  0  4           0  0  0
   -0.4823    0.0000    1.4324 C   0  0  0  0  0  4           0  0  0
    0.0000    0.0000    0.0000 C   0  0  0  0  0  4           0  0  0
    1.9858    1.1861    0.6848 C   0  0  0  0  0  4           0  0  0
    1.9853   -0.0668   -1.3771 C   0  0  0  0  0  4           0  0  0
   -3.3376    2.9784    1.8418 C   0  0  0  0  0  4           0  0  0
   -1.4886   -1.3846    3.8584 C   0  0  0  0  0  4           0  0  0
    3.5107    1.2116    0.6995 C   0  0  0  0  0  4           0  0  0
    1.5209   -1.3295   -2.0955 C   0  0  0  0  0  4           0  0  0
  1 10  2  0     0  0
  2  4  1  0     0  0
  2 10  1  0     0  0
  3 11  1  0     0  0
  3 12  1  0     0  0
  3 13  1  0     0  0
  4  5  1  0     0  0
  4  6  2  0     0  0
  5  7  2  0     0  0
  5 14  1  0     0  0
  6  8  1  0     0  0
  6 15  1  0     0  0
  7  9  1  0     0  0
  8  9  2  0     0  0
 10 11  1  0     0  0
 12 16  1  0     0  0
 13 17  1  0     0  0
M  END
> <standard_type>
pIC50

> <# Confs.>
25

> <canonical_smiles>
CC1=CC=CC(C)=C1NC(CN(CC)CC)=O

> <standard_relation>
=

> <Publication_ID>
nan

> <predicted_activity_value>
nan

> <actual_activity_value>
-2.419790586106363

> <Compound>
Lidocaine 

> <standard_units>
uM

> hash
9719401595256226579

$$$$
27
XXILIB    08252103503D 0   0.00000     0.00000

 17 17  0     1  0            999 V2000
    0.1679   -0.5224    2.3370 O   0  0  0  0  0  2           0  0  0
   -1.6986    0.6422    1.5870 N   0  0  0  0  0  3           0  0  0
    1.4686    0.0000    0.0000 N   0  0  2  0  0  3           0  0  0
   -2.3893    0.7972    2.8037 C   0  0  0  0  0  4           0  0  0
   -3.8068    0.8592    2.7365 C   0  0  0  0  0  4           0  0  0
   -1.7518    0.8932    4.0659 C   0  0  0  0  0  4           0  0  0
   -4.5570    1.0197    3.9123 C   0  0  0  0  0  4           0  0  0
   -2.5421    1.0502    5.2210 C   0  0  0  0  0  4           0  0  0
   -3.9289    1.1143    5.1465 C   0  0  0  0  0  4           0  0  0
   -0.4823    0.0000    1.4324 C   0  0  0  0  0  4           0  0  0
    0.0000    0.0000    0.0000 C   0  0  0  0  0  4           0  0  0
    1.9858    1.1861    0.6848 C   0  0  0  0  0  4           0  0  0
    1.9853   -0.0668   -1.3771 C   0  0  0  0  0  4           0  0  0
   -4.5571    0.7622    1.4319 C   0  0  0  0  0  4           0  0  0
   -0.2614    0.8413    4.2715 C   0  0  0  0  0  4           0  0  0
    3.5107    1.2116    0.6995 C   0  0  0  0  0  4           0  0  0
    1.5209   -1.3295   -2.0955 C   0  0  0  0  0  4           0  0  0
  1 10  2  0     0  0
  2  4  1  0     0  0
  2 10  1  0     0  0
  3 11  1  0     0  0
  3 12  1  0     0  0
  3 13  1  0     0  0
  4  5  1  0     0  0
  4  6  2  0     0  0
  5  7  2  0     0  0
  5 14  1  0     0  0
  6  8  1  0     0  0
  6 15  1  0     0  0
  7  9  1  0     0  0
  8  9  2  0     0  0
 10 11  1  0     0  0
 12 16  1  0     0  0
 13 17  1  0     0  0
M  END
> <standard_type>
pIC50

> <# Confs.>
25

> <canonical_smiles>
CC1=CC=CC(C)=C1NC(CN(CC)CC)=O

> <standard_relation>
=

> <Publication_ID>
nan

> <predicted_activity_value>
nan

> <actual_activity_value>
-2.419790586106363

> <Compound>
Lidocaine 

> <standard_units>
uM

> hash
9719401595256226579

$$$$
27
XXILIB    08252103503D 0   0.00000     0.00000

 17 17  0     1  0            999 V2000
    0.1679   -0.5224    2.3370 O   0  0  0  0  0  2           0  0  0
   -1.6986    0.6422    1.5870 N   0  0  0  0  0  3           0  0  0
    1.4652    0.0000   -0.0000 N   0  0  2  0  0  3           0  0  0
   -2.3893    0.7972    2.8037 C   0  0  0  0  0  4           0  0  0
   -3.2033    1.9534    2.9397 C   0  0  0  0  0  4           0  0  0
   -2.3125   -0.1248    3.8773 C   0  0  0  0  0  4           0  0  0
   -3.9142    2.1728    4.1302 C   0  0  0  0  0  4           0  0  0
   -3.0446    0.1317    5.0528 C   0  0  0  0  0  4           0  0  0
   -3.8357    1.2678    5.1798 C   0  0  0  0  0  4           0  0  0
   -0.4823    0.0000    1.4324 C   0  0  0  0  0  4           0  0  0
    0.0000    0.0000    0.0000 C   0  0  0  0  0  4           0  0  0
    1.9669    0.0000   -1.3753 C   0  0  0  0  0  4           0  0  0
    2.0346    1.0892    0.8119 C   0  0  0  0  0  4           0  0  0
   -3.3376    2.9784    1.8418 C   0  0  0  0  0  4           0  0  0
   -1.4886   -1.3846    3.8584 C   0  0  0  0  0  4           0  0  0
    1.4958   -1.2264   -2.1500 C   0  0  0  0  0  4           0  0  0
    3.5596    1.0690    0.7968 C   0  0  0  0  0  4           0  0  0
  1 10  2  0     0  0
  2  4  1  0     0  0
  2 10  1  0     0  0
  3 11  1  0     0  0
  3 12  1  0     0  0
  3 13  1  0     0  0
  4  5  1  0     0  0
  4  6  2  0     0  0
  5  7  2  0     0  0
  5 14  1  0     0  0
  6  8  1  0     0  0
  6 15  1  0     0  0
  7  9  1  0     0  0
  8  9  2  0     0  0
 10 11  1  0     0  0
 12 16  1  0     0  0
 13 17  1  0     0  0
M  END
> <standard_type>
pIC50

> <# Confs.>
25

> <canonical_smiles>
CC1=CC=CC(C)=C1NC(CN(CC)CC)=O

> <standard_relation>
=

> <Publication_ID>
nan

> <predicted_activity_value>
nan

> <actual_activity_value>
-2.419790586106363

> <Compound>
Lidocaine 

> <standard_units>
uM

> hash
9719401595256226579

$$$$
27
XXILIB    08252103503D 0   0.00000     0.00000

 17 17  0     1  0            999 V2000
    0.1679   -0.5224    2.3370 O   0  0  0  0  0  2           0  0  0
   -1.6986    0.6422    1.5870 N   0  0  0  0  0  3           0  0  0
    1.4652    0.0000   -0.0000 N   0  0  2  0  0  3           0  0  0
   -2.3893    0.7972    2.8037 C   0  0  0  0  0  4           0  0  0
   -3.2033    1.9534    2.9397 C   0  0  0  0  0  4           0  0  0
   -2.3125   -0.1248    3.8773 C   0  0  0  0  0  4           0  0  0
   -3.9142    2.1728    4.1302 C   0  0  0  0  0  4           0  0  0
   -3.0446    0.1317    5.0528 C   0  0  0  0  0  4           0  0  0
   -3.8357    1.2678    5.1798 C   0  0  0  0  0  4           0  0  0
   -0.4823    0.0000    1.4324 C   0  0  0  0  0  4           0  0  0
    0.0000    0.0000    0.0000 C   0  0  0  0  0  4           0  0  0
    1.9669    0.0000   -1.3753 C   0  0  0  0  0  4           0  0  0
    2.0346    1.0892    0.8119 C   0  0  0  0  0  4           0  0  0
   -3.3376    2.9784    1.8418 C   0  0  0  0  0  4           0  0  0
   -1.4886   -1.3846    3.8584 C   0  0  0  0  0  4           0  0  0
    1.4958   -1.2264   -2.1500 C   0  0  0  0  0  4           0  0  0
    1.6004    2.4603    0.3042 C   0  0  0  0  0  4           0  0  0
  1 10  2  0     0  0
  2  4  1  0     0  0
  2 10  1  0     0  0
  3 11  1  0     0  0
  3 12  1  0     0  0
  3 13  1  0     0  0
  4  5  1  0     0  0
  4  6  2  0     0  0
  5  7  2  0     0  0
  5 14  1  0     0  0
  6  8  1  0     0  0
  6 15  1  0     0  0
  7  9  1  0     0  0
  8  9  2  0     0  0
 10 11  1  0     0  0
 12 16  1  0     0  0
 13 17  1  0     0  0
M  END
> <standard_type>
pIC50

> <# Confs.>
25

> <canonical_smiles>
CC1=CC=CC(C)=C1NC(CN(CC)CC)=O

> <standard_relation>
=

> <Publication_ID>
nan

> <predicted_activity_value>
nan

> <actual_activity_value>
-2.419790586106363

> <Compound>
Lidocaine 

> <standard_units>
uM

> hash
9719401595256226579

$$$$
27
XXILIB    08252103503D 0   0.00000     0.00000

 17 17  0     1  0            999 V2000
    0.1679   -0.5224    2.3370 O   0  0  0  0  0  2           0  0  0
   -1.6986    0.6422    1.5870 N   0  0  0  0  0  3           0  0  0
    1.4652    0.0000   -0.0000 N   0  0  2  0  0  3           0  0  0
   -2.3893    0.7972    2.8037 C   0  0  0  0  0  4           0  0  0
   -3.8068    0.8592    2.7365 C   0  0  0  0  0  4           0  0  0
   -1.7518    0.8932    4.0659 C   0  0  0  0  0  4           0  0  0
   -4.5570    1.0197    3.9123 C   0  0  0  0  0  4           0  0  0
   -2.5421    1.0502    5.2210 C   0  0  0  0  0  4           0  0  0
   -3.9289    1.1143    5.1465 C   0  0  0  0  0  4           0  0  0
   -0.4823    0.0000    1.4324 C   0  0  0  0  0  4           0  0  0
    0.0000    0.0000    0.0000 C   0  0  0  0  0  4           0  0  0
    1.9669    0.0000   -1.3753 C   0  0  0  0  0  4           0  0  0
    2.0346    1.0892    0.8119 C   0  0  0  0  0  4           0  0  0
   -4.5571    0.7622    1.4319 C   0  0  0  0  0  4           0  0  0
   -0.2614    0.8413    4.2715 C   0  0  0  0  0  4           0  0  0
    1.4958   -1.2264   -2.1500 C   0  0  0  0  0  4           0  0  0
    3.5596    1.0690    0.7968 C   0  0  0  0  0  4           0  0  0
  1 10  2  0     0  0
  2  4  1  0     0  0
  2 10  1  0     0  0
  3 11  1  0     0  0
  3 12  1  0     0  0
  3 13  1  0     0  0
  4  5  1  0     0  0
  4  6  2  0     0  0
  5  7  2  0     0  0
  5 14  1  0     0  0
  6  8  1  0     0  0
  6 15  1  0     0  0
  7  9  1  0     0  0
  8  9  2  0     0  0
 10 11  1  0     0  0
 12 16  1  0     0  0
 13 17  1  0     0  0
M  END
> <standard_type>
pIC50

> <# Confs.>
25

> <canonical_smiles>
CC1=CC=CC(C)=C1NC(CN(CC)CC)=O

> <standard_relation>
=

> <Publication_ID>
nan

> <predicted_activity_value>
nan

> <actual_activity_value>
-2.419790586106363

> <Compound>
Lidocaine 

> <standard_units>
uM

> hash
9719401595256226579

$$$$
27
XXILIB    08252103503D 0   0.00000     0.00000

 17 17  0     1  0            999 V2000
    0.1679   -0.5224    2.3370 O   0  0  0  0  0  2           0  0  0
   -1.6986    0.6422    1.5870 N   0  0  0  0  0  3           0  0  0
    1.4652    0.0000   -0.0000 N   0  0  2  0  0  3           0  0  0
   -2.3893    0.7972    2.8037 C   0  0  0  0  0  4           0  0  0
   -3.8068    0.8592    2.7365 C   0  0  0  0  0  4           0  0  0
   -1.7518    0.8932    4.0659 C   0  0  0  0  0  4           0  0  0
   -4.5570    1.0197    3.9123 C   0  0  0  0  0  4           0  0  0
   -2.5421    1.0502    5.2210 C   0  0  0  0  0  4           0  0  0
   -3.9289    1.1143    5.1465 C   0  0  0  0  0  4           0  0  0
   -0.4823    0.0000    1.4324 C   0  0  0  0  0  4           0  0  0
    0.0000    0.0000    0.0000 C   0  0  0  0  0  4           0  0  0
    1.9669    0.0000   -1.3753 C   0  0  0  0  0  4           0  0  0
    2.0346    1.0892    0.8119 C   0  0  0  0  0  4           0  0  0
   -4.5571    0.7622    1.4319 C   0  0  0  0  0  4           0  0  0
   -0.2614    0.8413    4.2715 C   0  0  0  0  0  4           0  0  0
    1.4958   -1.2264   -2.1500 C   0  0  0  0  0  4           0  0  0
    1.6004    2.4603    0.3042 C   0  0  0  0  0  4           0  0  0
  1 10  2  0     0  0
  2  4  1  0     0  0
  2 10  1  0     0  0
  3 11  1  0     0  0
  3 12  1  0     0  0
  3 13  1  0     0  0
  4  5  1  0     0  0
  4  6  2  0     0  0
  5  7  2  0     0  0
  5 14  1  0     0  0
  6  8  1  0     0  0
  6 15  1  0     0  0
  7  9  1  0     0  0
  8  9  2  0     0  0
 10 11  1  0     0  0
 12 16  1  0     0  0
 13 17  1  0     0  0
M  END
> <standard_type>
pIC50

> <# Confs.>
25

> <canonical_smiles>
CC1=CC=CC(C)=C1NC(CN(CC)CC)=O

> <standard_relation>
=

> <Publication_ID>
nan

> <predicted_activity_value>
nan

> <actual_activity_value>
-2.419790586106363

> <Compound>
Lidocaine 

> <standard_units>
uM

> hash
9719401595256226579

$$$$
27
XXILIB    08252103503D 0   0.00000     0.00000

 17 17  0     1  0            999 V2000
    0.1679    0.5224    2.3370 O   0  0  0  0  0  2           0  0  0
   -1.7029   -0.6345    1.5856 N   0  0  0  0  0  3           0  0  0
    1.4652   -0.0000    0.0000 N   0  0  2  0  0  3           0  0  0
   -2.3945   -0.7876    2.8020 C   0  0  0  0  0  4           0  0  0
   -3.8124   -0.8401    2.7346 C   0  0  0  0  0  4           0  0  0
   -1.7578   -0.8890    4.0641 C   0  0  0  0  0  4           0  0  0
   -4.5642   -0.9849    3.9114 C   0  0  0  0  0  4           0  0  0
   -2.5493   -1.0367    5.2195 C   0  0  0  0  0  4           0  0  0
   -3.9369   -1.0829    5.1457 C   0  0  0  0  0  4           0  0  0
   -0.4823    0.0000    1.4324 C   0  0  0  0  0  4           0  0  0
    0.0000    0.0000    0.0000 C   0  0  0  0  0  4           0  0  0
    1.9669   -1.1911    0.6877 C   0  0  0  0  0  4           0  0  0
    2.0346    0.1585   -1.3492 C   0  0  0  0  0  4           0  0  0
   -4.5618   -0.7412    1.4296 C   0  0  0  0  0  4           0  0  0
   -0.2671   -0.8479    4.2697 C   0  0  0  0  0  4           0  0  0
    1.4958   -2.4752    0.0129 C   0  0  0  0  0  4           0  0  0
    3.5596    0.1555   -1.3242 C   0  0  0  0  0  4           0  0  0
  1 10  2  0     0  0
  2  4  1  0     0  0
  2 10  1  0     0  0
  3 11  1  0     0  0
  3 12  1  0     0  0
  3 13  1  0     0  0
  4  5  1  0     0  0
  4  6  2  0     0  0
  5  7  2  0     0  0
  5 14  1  0     0  0
  6  8  1  0     0  0
  6 15  1  0     0  0
  7  9  1  0     0  0
  8  9  2  0     0  0
 10 11  1  0     0  0
 12 16  1  0     0  0
 13 17  1  0     0  0
M  END
> <standard_type>
pIC50

> <# Confs.>
25

> <canonical_smiles>
CC1=CC=CC(C)=C1NC(CN(CC)CC)=O

> <standard_relation>
=

> <Publication_ID>
nan

> <predicted_activity_value>
nan

> <actual_activity_value>
-2.419790586106363

> <Compound>
Lidocaine 

> <standard_units>
uM

> hash
9719401595256226579

$$$$
27
XXILIB    08252103503D 0   0.00000     0.00000

 17 17  0     1  0            999 V2000
    0.1679    0.5224    2.3370 O   0  0  0  0  0  2           0  0  0
   -1.7029   -0.6345    1.5856 N   0  0  0  0  0  3           0  0  0
    1.4652   -0.0000    0.0000 N   0  0  2  0  0  3           0  0  0
   -2.3945   -0.7876    2.8020 C   0  0  0  0  0  4           0  0  0
   -3.8124   -0.8401    2.7346 C   0  0  0  0  0  4           0  0  0
   -1.7578   -0.8890    4.0641 C   0  0  0  0  0  4           0  0  0
   -4.5642   -0.9849    3.9114 C   0  0  0  0  0  4           0  0  0
   -2.5493   -1.0367    5.2195 C   0  0  0  0  0  4           0  0  0
   -3.9369   -1.0829    5.1457 C   0  0  0  0  0  4           0  0  0
   -0.4823    0.0000    1.4324 C   0  0  0  0  0  4           0  0  0
    0.0000    0.0000    0.0000 C   0  0  0  0  0  4           0  0  0
    1.9669   -1.1911    0.6877 C   0  0  0  0  0  4           0  0  0
    2.0346    0.1585   -1.3492 C   0  0  0  0  0  4           0  0  0
   -4.5618   -0.7412    1.4296 C   0  0  0  0  0  4           0  0  0
   -0.2671   -0.8479    4.2697 C   0  0  0  0  0  4           0  0  0
    3.4914   -1.2315    0.7110 C   0  0  0  0  0  4           0  0  0
    1.6004    1.4694   -1.9967 C   0  0  0  0  0  4           0  0  0
  1 10  2  0     0  0
  2  4  1  0     0  0
  2 10  1  0     0  0
  3 11  1  0     0  0
  3 12  1  0     0  0
  3 13  1  0     0  0
  4  5  1  0     0  0
  4  6  2  0     0  0
  5  7  2  0     0  0
  5 14  1  0     0  0
  6  8  1  0     0  0
  6 15  1  0     0  0
  7  9  1  0     0  0
  8  9  2  0     0  0
 10 11  1  0     0  0
 12 16  1  0     0  0
 13 17  1  0     0  0
M  END
> <standard_type>
pIC50

> <# Confs.>
25

> <canonical_smiles>
CC1=CC=CC(C)=C1NC(CN(CC)CC)=O

> <standard_relation>
=

> <Publication_ID>
nan

> <predicted_activity_value>
nan

> <actual_activity_value>
-2.419790586106363

> <Compound>
Lidocaine 

> <standard_units>
uM

> hash
9719401595256226579

$$$$
27
XXILIB    08252103503D 0   0.00000     0.00000

 17 17  0     1  0            999 V2000
    0.1679   -0.5224    2.3370 O   0  0  0  0  0  2           0  0  0
   -1.6986    0.6422    1.5870 N   0  0  0  0  0  3           0  0  0
    1.4686    0.0000    0.0000 N   0  0  2  0  0  3           0  0  0
   -2.3893    0.7972    2.8037 C   0  0  0  0  0  4           0  0  0
   -3.2033    1.9534    2.9397 C   0  0  0  0  0  4           0  0  0
   -2.3125   -0.1248    3.8773 C   0  0  0  0  0  4           0  0  0
   -3.9142    2.1728    4.1302 C   0  0  0  0  0  4           0  0  0
   -3.0446    0.1317    5.0528 C   0  0  0  0  0  4           0  0  0
   -3.8357    1.2678    5.1798 C   0  0  0  0  0  4           0  0  0
   -0.4823    0.0000    1.4324 C   0  0  0  0  0  4           0  0  0
    0.0000    0.0000    0.0000 C   0  0  0  0  0  4           0  0  0
    1.9858    1.1861    0.6848 C   0  0  0  0  0  4           0  0  0
    1.9853   -0.0668   -1.3771 C   0  0  0  0  0  4           0  0  0
   -3.3376    2.9784    1.8418 C   0  0  0  0  0  4           0  0  0
   -1.4886   -1.3846    3.8584 C   0  0  0  0  0  4           0  0  0
    3.5107    1.2116    0.6995 C   0  0  0  0  0  4           0  0  0
    1.5209    1.1205   -2.2144 C   0  0  0  0  0  4           0  0  0
  1 10  2  0     0  0
  2  4  1  0     0  0
  2 10  1  0     0  0
  3 11  1  0     0  0
  3 12  1  0     0  0
  3 13  1  0     0  0
  4  5  1  0     0  0
  4  6  2  0     0  0
  5  7  2  0     0  0
  5 14  1  0     0  0
  6  8  1  0     0  0
  6 15  1  0     0  0
  7  9  1  0     0  0
  8  9  2  0     0  0
 10 11  1  0     0  0
 12 16  1  0     0  0
 13 17  1  0     0  0
M  END
> <standard_type>
pIC50

> <# Confs.>
25

> <canonical_smiles>
CC1=CC=CC(C)=C1NC(CN(CC)CC)=O

> <standard_relation>
=

> <Publication_ID>
nan

> <predicted_activity_value>
nan

> <actual_activity_value>
-2.419790586106363

> <Compound>
Lidocaine 

> <standard_units>
uM

> hash
9719401595256226579

$$$$
27
XXILIB    08252103503D 0   0.00000     0.00000

 17 17  0     1  0            999 V2000
    0.1679   -0.5224    2.3370 O   0  0  0  0  0  2           0  0  0
   -1.6986    0.6422    1.5870 N   0  0  0  0  0  3           0  0  0
    1.4686    0.0000    0.0000 N   0  0  2  0  0  3           0  0  0
   -2.3893    0.7972    2.8037 C   0  0  0  0  0  4           0  0  0
   -3.2033    1.9534    2.9397 C   0  0  0  0  0  4           0  0  0
   -2.3125   -0.1248    3.8773 C   0  0  0  0  0  4           0  0  0
   -3.9142    2.1728    4.1302 C   0  0  0  0  0  4           0  0  0
   -3.0446    0.1317    5.0528 C   0  0  0  0  0  4           0  0  0
   -3.8357    1.2678    5.1798 C   0  0  0  0  0  4           0  0  0
   -0.4823    0.0000    1.4324 C   0  0  0  0  0  4           0  0  0
    0.0000    0.0000    0.0000 C   0  0  0  0  0  4           0  0  0
    1.9858    1.1861    0.6848 C   0  0  0  0  0  4           0  0  0
    1.9853   -0.0668   -1.3771 C   0  0  0  0  0  4           0  0  0
   -3.3376    2.9784    1.8418 C   0  0  0  0  0  4           0  0  0
   -1.4886   -1.3846    3.8584 C   0  0  0  0  0  4           0  0  0
    1.5234    2.4747    0.0126 C   0  0  0  0  0  4           0  0  0
    1.5209   -1.3295   -2.0955 C   0  0  0  0  0  4           0  0  0
  1 10  2  0     0  0
  2  4  1  0     0  0
  2 10  1  0     0  0
  3 11  1  0     0  0
  3 12  1  0     0  0
  3 13  1  0     0  0
  4  5  1  0     0  0
  4  6  2  0     0  0
  5  7  2  0     0  0
  5 14  1  0     0  0
  6  8  1  0     0  0
  6 15  1  0     0  0
  7  9  1  0     0  0
  8  9  2  0     0  0
 10 11  1  0     0  0
 12 16  1  0     0  0
 13 17  1  0     0  0
M  END
> <standard_type>
pIC50

> <# Confs.>
25

> <canonical_smiles>
CC1=CC=CC(C)=C1NC(CN(CC)CC)=O

> <standard_relation>
=

> <Publication_ID>
nan

> <predicted_activity_value>
nan

> <actual_activity_value>
-2.419790586106363

> <Compound>
Lidocaine 

> <standard_units>
uM

> hash
9719401595256226579

$$$$
27
XXILIB    08252103503D 0   0.00000     0.00000

 17 17  0     1  0            999 V2000
    0.1679    0.5224    2.3370 O   0  0  0  0  0  2           0  0  0
   -1.7029   -0.6345    1.5856 N   0  0  0  0  0  3           0  0  0
    1.4686    0.0000   -0.0000 N   0  0  2  0  0  3           0  0  0
   -2.3945   -0.7876    2.8020 C   0  0  0  0  0  4           0  0  0
   -3.8124   -0.8401    2.7346 C   0  0  0  0  0  4           0  0  0
   -1.7578   -0.8890    4.0641 C   0  0  0  0  0  4           0  0  0
   -4.5642   -0.9849    3.9114 C   0  0  0  0  0  4           0  0  0
   -2.5493   -1.0367    5.2195 C   0  0  0  0  0  4           0  0  0
   -3.9369   -1.0829    5.1457 C   0  0  0  0  0  4           0  0  0
   -0.4823    0.0000    1.4324 C   0  0  0  0  0  4           0  0  0
    0.0000    0.0000    0.0000 C   0  0  0  0  0  4           0  0  0
    1.9858    0.0000   -1.3696 C   0  0  0  0  0  4           0  0  0
    1.9853   -1.1592    0.7464 C   0  0  0  0  0  4           0  0  0
   -4.5618   -0.7412    1.4296 C   0  0  0  0  0  4           0  0  0
   -0.2671   -0.8479    4.2697 C   0  0  0  0  0  4           0  0  0
    3.5107   -0.0000   -1.3991 C   0  0  0  0  0  4           0  0  0
    1.5209   -2.4779    0.1368 C   0  0  0  0  0  4           0  0  0
  1 10  2  0     0  0
  2  4  1  0     0  0
  2 10  1  0     0  0
  3 11  1  0     0  0
  3 12  1  0     0  0
  3 13  1  0     0  0
  4  5  1  0     0  0
  4  6  2  0     0  0
  5  7  2  0     0  0
  5 14  1  0     0  0
  6  8  1  0     0  0
  6 15  1  0     0  0
  7  9  1  0     0  0
  8  9  2  0     0  0
 10 11  1  0     0  0
 12 16  1  0     0  0
 13 17  1  0     0  0
M  END
> <standard_type>
pIC50

> <# Confs.>
25

> <canonical_smiles>
CC1=CC=CC(C)=C1NC(CN(CC)CC)=O

> <standard_relation>
=

> <Publication_ID>
nan

> <predicted_activity_value>
nan

> <actual_activity_value>
-2.419790586106363

> <Compound>
Lidocaine 

> <standard_units>
uM

> hash
9719401595256226579

$$$$
27
XXILIB    08252103503D 0   0.00000     0.00000

 17 17  0     1  0            999 V2000
    0.1679    0.5224    2.3370 O   0  0  0  0  0  2           0  0  0
   -1.7029   -0.6345    1.5856 N   0  0  0  0  0  3           0  0  0
    1.4652   -0.0000    0.0000 N   0  0  2  0  0  3           0  0  0
   -2.3945   -0.7876    2.8020 C   0  0  0  0  0  4           0  0  0
   -3.2161   -1.9387    2.9354 C   0  0  0  0  0  4           0  0  0
   -2.3130    0.1324    3.8770 C   0  0  0  0  0  4           0  0  0
   -3.9390   -2.1492    4.1203 C   0  0  0  0  0  4           0  0  0
   -3.0518   -0.1186    5.0493 C   0  0  0  0  0  4           0  0  0
   -3.8572   -1.2453    5.1706 C   0  0  0  0  0  4           0  0  0
   -0.4823    0.0000    1.4324 C   0  0  0  0  0  4           0  0  0
    0.0000    0.0000    0.0000 C   0  0  0  0  0  4           0  0  0
    1.9669   -1.1911    0.6877 C   0  0  0  0  0  4           0  0  0
    2.0346    0.1585   -1.3492 C   0  0  0  0  0  4           0  0  0
   -3.3526   -2.9634    1.8374 C   0  0  0  0  0  4           0  0  0
   -1.4804    1.3864    3.8611 C   0  0  0  0  0  4           0  0  0
    1.4958   -2.4752    0.0129 C   0  0  0  0  0  4           0  0  0
    3.5596    0.1555   -1.3242 C   0  0  0  0  0  4           0  0  0
  1 10  2  0     0  0
  2  4  1  0     0  0
  2 10  1  0     0  0
  3 11  1  0     0  0
  3 12  1  0     0  0
  3 13  1  0     0  0
  4  5  1  0     0  0
  4  6  2  0     0  0
  5  7  2  0     0  0
  5 14  1  0     0  0
  6  8  1  0     0  0
  6 15  1  0     0  0
  7  9  1  0     0  0
  8  9  2  0     0  0
 10 11  1  0     0  0
 12 16  1  0     0  0
 13 17  1  0     0  0
M  END
> <standard_type>
pIC50

> <# Confs.>
25

> <canonical_smiles>
CC1=CC=CC(C)=C1NC(CN(CC)CC)=O

> <standard_relation>
=

> <Publication_ID>
nan

> <predicted_activity_value>
nan

> <actual_activity_value>
-2.419790586106363

> <Compound>
Lidocaine 

> <standard_units>
uM

> hash
9719401595256226579

$$$$
27
XXILIB    08252103503D 0   0.00000     0.00000

 17 17  0     1  0            999 V2000
    0.1679   -0.5224    2.3370 O   0  0  0  0  0  2           0  0  0
   -1.6986    0.6422    1.5870 N   0  0  0  0  0  3           0  0  0
    1.4686    0.0000    0.0000 N   0  0  2  0  0  3           0  0  0
   -2.3893    0.7972    2.8037 C   0  0  0  0  0  4           0  0  0
   -3.8068    0.8592    2.7365 C   0  0  0  0  0  4           0  0  0
   -1.7518    0.8932    4.0659 C   0  0  0  0  0  4           0  0  0
   -4.5570    1.0197    3.9123 C   0  0  0  0  0  4           0  0  0
   -2.5421    1.0502    5.2210 C   0  0  0  0  0  4           0  0  0
   -3.9289    1.1143    5.1465 C   0  0  0  0  0  4           0  0  0
   -0.4823    0.0000    1.4324 C   0  0  0  0  0  4           0  0  0
    0.0000    0.0000    0.0000 C   0  0  0  0  0  4           0  0  0
    1.9858    1.1861    0.6848 C   0  0  0  0  0  4           0  0  0
    1.9853   -0.0668   -1.3771 C   0  0  0  0  0  4           0  0  0
   -4.5571    0.7622    1.4319 C   0  0  0  0  0  4           0  0  0
   -0.2614    0.8413    4.2715 C   0  0  0  0  0  4           0  0  0
    3.5107    1.2116    0.6995 C   0  0  0  0  0  4           0  0  0
    1.5209    1.1205   -2.2144 C   0  0  0  0  0  4           0  0  0
  1 10  2  0     0  0
  2  4  1  0     0  0
  2 10  1  0     0  0
  3 11  1  0     0  0
  3 12  1  0     0  0
  3 13  1  0     0  0
  4  5  1  0     0  0
  4  6  2  0     0  0
  5  7  2  0     0  0
  5 14  1  0     0  0
  6  8  1  0     0  0
  6 15  1  0     0  0
  7  9  1  0     0  0
  8  9  2  0     0  0
 10 11  1  0     0  0
 12 16  1  0     0  0
 13 17  1  0     0  0
M  END
> <standard_type>
pIC50

> <# Confs.>
25

> <canonical_smiles>
CC1=CC=CC(C)=C1NC(CN(CC)CC)=O

> <standard_relation>
=

> <Publication_ID>
nan

> <predicted_activity_value>
nan

> <actual_activity_value>
-2.419790586106363

> <Compound>
Lidocaine 

> <standard_units>
uM

> hash
9719401595256226579

$$$$
27
XXILIB    08252103503D 0   0.00000     0.00000

 17 17  0     1  0            999 V2000
    0.1679    0.5224    2.3370 O   0  0  0  0  0  2           0  0  0
   -1.7029   -0.6345    1.5856 N   0  0  0  0  0  3           0  0  0
    1.4686    0.0000    0.0000 N   0  0  2  0  0  3           0  0  0
   -2.3945   -0.7876    2.8020 C   0  0  0  0  0  4           0  0  0
   -3.8124   -0.8401    2.7346 C   0  0  0  0  0  4           0  0  0
   -1.7578   -0.8890    4.0641 C   0  0  0  0  0  4           0  0  0
   -4.5642   -0.9849    3.9114 C   0  0  0  0  0  4           0  0  0
   -2.5493   -1.0367    5.2195 C   0  0  0  0  0  4           0  0  0
   -3.9369   -1.0829    5.1457 C   0  0  0  0  0  4           0  0  0
   -0.4823    0.0000    1.4324 C   0  0  0  0  0  4           0  0  0
    0.0000    0.0000    0.0000 C   0  0  0  0  0  4           0  0  0
    1.9858    0.0000   -1.3696 C   0  0  0  0  0  4           0  0  0
    1.9853   -1.1592    0.7464 C   0  0  0  0  0  4           0  0  0
   -4.5618   -0.7412    1.4296 C   0  0  0  0  0  4           0  0  0
   -0.2671   -0.8479    4.2697 C   0  0  0  0  0  4           0  0  0
    1.5234    1.2264   -2.1495 C   0  0  0  0  0  4           0  0  0
    3.5101   -1.1873    0.7645 C   0  0  0  0  0  4           0  0  0
  1 10  2  0     0  0
  2  4  1  0     0  0
  2 10  1  0     0  0
  3 11  1  0     0  0
  3 12  1  0     0  0
  3 13  1  0     0  0
  4  5  1  0     0  0
  4  6  2  0     0  0
  5  7  2  0     0  0
  5 14  1  0     0  0
  6  8  1  0     0  0
  6 15  1  0     0  0
  7  9  1  0     0  0
  8  9  2  0     0  0
 10 11  1  0     0  0
 12 16  1  0     0  0
 13 17  1  0     0  0
M  END
> <standard_type>
pIC50

> <# Confs.>
25

> <canonical_smiles>
CC1=CC=CC(C)=C1NC(CN(CC)CC)=O

> <standard_relation>
=

> <Publication_ID>
nan

> <predicted_activity_value>
nan

> <actual_activity_value>
-2.419790586106363

> <Compound>
Lidocaine 

> <standard_units>
uM

> hash
9719401595256226579

$$$$
27
XXILIB    08252103503D 0   0.00000     0.00000

 17 17  0     1  0            999 V2000
    0.1679    0.5224    2.3370 O   0  0  0  0  0  2           0  0  0
   -1.7029   -0.6345    1.5856 N   0  0  0  0  0  3           0  0  0
    1.4652   -0.0000    0.0000 N   0  0  2  0  0  3           0  0  0
   -2.3945   -0.7876    2.8020 C   0  0  0  0  0  4           0  0  0
   -3.2161   -1.9387    2.9354 C   0  0  0  0  0  4           0  0  0
   -2.3130    0.1324    3.8770 C   0  0  0  0  0  4           0  0  0
   -3.9390   -2.1492    4.1203 C   0  0  0  0  0  4           0  0  0
   -3.0518   -0.1186    5.0493 C   0  0  0  0  0  4           0  0  0
   -3.8572   -1.2453    5.1706 C   0  0  0  0  0  4           0  0  0
   -0.4823    0.0000    1.4324 C   0  0  0  0  0  4           0  0  0
    0.0000    0.0000    0.0000 C   0  0  0  0  0  4           0  0  0
    1.9669   -1.1911    0.6877 C   0  0  0  0  0  4           0  0  0
    2.0346    0.1585   -1.3492 C   0  0  0  0  0  4           0  0  0
   -3.3526   -2.9634    1.8374 C   0  0  0  0  0  4           0  0  0
   -1.4804    1.3864    3.8611 C   0  0  0  0  0  4           0  0  0
    3.4914   -1.2315    0.7110 C   0  0  0  0  0  4           0  0  0
    1.6004    1.4694   -1.9967 C   0  0  0  0  0  4           0  0  0
  1 10  2  0     0  0
  2  4  1  0     0  0
  2 10  1  0     0  0
  3 11  1  0     0  0
  3 12  1  0     0  0
  3 13  1  0     0  0
  4  5  1  0     0  0
  4  6  2  0     0  0
  5  7  2  0     0  0
  5 14  1  0     0  0
  6  8  1  0     0  0
  6 15  1  0     0  0
  7  9  1  0     0  0
  8  9  2  0     0  0
 10 11  1  0     0  0
 12 16  1  0     0  0
 13 17  1  0     0  0
M  END
> <standard_type>
pIC50

> <# Confs.>
25

> <canonical_smiles>
CC1=CC=CC(C)=C1NC(CN(CC)CC)=O

> <standard_relation>
=

> <Publication_ID>
nan

> <predicted_activity_value>
nan

> <actual_activity_value>
-2.419790586106363

> <Compound>
Lidocaine 

> <standard_units>
uM

> hash
9719401595256226579

$$$$
27
XXILIB    08252103503D 0   0.00000     0.00000

 17 17  0     1  0            999 V2000
    0.1679   -0.5224    2.3370 O   0  0  0  0  0  2           0  0  0
   -1.6986    0.6422    1.5870 N   0  0  0  0  0  3           0  0  0
    1.4686    0.0000    0.0000 N   0  0  2  0  0  3           0  0  0
   -2.3893    0.7972    2.8037 C   0  0  0  0  0  4           0  0  0
   -3.8068    0.8592    2.7365 C   0  0  0  0  0  4           0  0  0
   -1.7518    0.8932    4.0659 C   0  0  0  0  0  4           0  0  0
   -4.5570    1.0197    3.9123 C   0  0  0  0  0  4           0  0  0
   -2.5421    1.0502    5.2210 C   0  0  0  0  0  4           0  0  0
   -3.9289    1.1143    5.1465 C   0  0  0  0  0  4           0  0  0
   -0.4823    0.0000    1.4324 C   0  0  0  0  0  4           0  0  0
    0.0000    0.0000    0.0000 C   0  0  0  0  0  4           0  0  0
    1.9858    1.1861    0.6848 C   0  0  0  0  0  4           0  0  0
    1.9853   -0.0668   -1.3771 C   0  0  0  0  0  4           0  0  0
   -4.5571    0.7622    1.4319 C   0  0  0  0  0  4           0  0  0
   -0.2614    0.8413    4.2715 C   0  0  0  0  0  4           0  0  0
    1.5234    2.4747    0.0126 C   0  0  0  0  0  4           0  0  0
    1.5209   -1.3295   -2.0955 C   0  0  0  0  0  4           0  0  0
  1 10  2  0     0  0
  2  4  1  0     0  0
  2 10  1  0     0  0
  3 11  1  0     0  0
  3 12  1  0     0  0
  3 13  1  0     0  0
  4  5  1  0     0  0
  4  6  2  0     0  0
  5  7  2  0     0  0
  5 14  1  0     0  0
  6  8  1  0     0  0
  6 15  1  0     0  0
  7  9  1  0     0  0
  8  9  2  0     0  0
 10 11  1  0     0  0
 12 16  1  0     0  0
 13 17  1  0     0  0
M  END
> <standard_type>
pIC50

> <# Confs.>
25

> <canonical_smiles>
CC1=CC=CC(C)=C1NC(CN(CC)CC)=O

> <standard_relation>
=

> <Publication_ID>
nan

> <predicted_activity_value>
nan

> <actual_activity_value>
-2.419790586106363

> <Compound>
Lidocaine 

> <standard_units>
uM

> hash
9719401595256226579

$$$$
27
XXILIB    08252103503D 0   0.00000     0.00000

 17 17  0     1  0            999 V2000
    0.1679    0.5224    2.3370 O   0  0  0  0  0  2           0  0  0
   -1.7029   -0.6345    1.5856 N   0  0  0  0  0  3           0  0  0
    1.4652   -0.0000    0.0000 N   0  0  2  0  0  3           0  0  0
   -2.3945   -0.7876    2.8020 C   0  0  0  0  0  4           0  0  0
   -3.8124   -0.8401    2.7346 C   0  0  0  0  0  4           0  0  0
   -1.7578   -0.8890    4.0641 C   0  0  0  0  0  4           0  0  0
   -4.5642   -0.9849    3.9114 C   0  0  0  0  0  4           0  0  0
   -2.5493   -1.0367    5.2195 C   0  0  0  0  0  4           0  0  0
   -3.9369   -1.0829    5.1457 C   0  0  0  0  0  4           0  0  0
   -0.4823    0.0000    1.4324 C   0  0  0  0  0  4           0  0  0
    0.0000    0.0000    0.0000 C   0  0  0  0  0  4           0  0  0
    1.9669   -1.1911    0.6877 C   0  0  0  0  0  4           0  0  0
    2.0346    0.1585   -1.3492 C   0  0  0  0  0  4           0  0  0
   -4.5618   -0.7412    1.4296 C   0  0  0  0  0  4           0  0  0
   -0.2671   -0.8479    4.2697 C   0  0  0  0  0  4           0  0  0
    3.4914   -1.2315    0.7110 C   0  0  0  0  0  4           0  0  0
    1.6004   -0.9667   -2.2828 C   0  0  0  0  0  4           0  0  0
  1 10  2  0     0  0
  2  4  1  0     0  0
  2 10  1  0     0  0
  3 11  1  0     0  0
  3 12  1  0     0  0
  3 13  1  0     0  0
  4  5  1  0     0  0
  4  6  2  0     0  0
  5  7  2  0     0  0
  5 14  1  0     0  0
  6  8  1  0     0  0
  6 15  1  0     0  0
  7  9  1  0     0  0
  8  9  2  0     0  0
 10 11  1  0     0  0
 12 16  1  0     0  0
 13 17  1  0     0  0
M  END
> <standard_type>
pIC50

> <# Confs.>
25

> <canonical_smiles>
CC1=CC=CC(C)=C1NC(CN(CC)CC)=O

> <standard_relation>
=

> <Publication_ID>
nan

> <predicted_activity_value>
nan

> <actual_activity_value>
-2.419790586106363

> <Compound>
Lidocaine 

> <standard_units>
uM

> hash
9719401595256226579

$$$$
27
XXILIB    08252103503D 0   0.00000     0.00000

 17 17  0     1  0            999 V2000
    0.1679    0.5224    2.3370 O   0  0  0  0  0  2           0  0  0
   -1.7029   -0.6345    1.5856 N   0  0  0  0  0  3           0  0  0
    1.4652   -0.0000    0.0000 N   0  0  2  0  0  3           0  0  0
   -2.3945   -0.7876    2.8020 C   0  0  0  0  0  4           0  0  0
   -3.8124   -0.8401    2.7346 C   0  0  0  0  0  4           0  0  0
   -1.7578   -0.8890    4.0641 C   0  0  0  0  0  4           0  0  0
   -4.5642   -0.9849    3.9114 C   0  0  0  0  0  4           0  0  0
   -2.5493   -1.0367    5.2195 C   0  0  0  0  0  4           0  0  0
   -3.9369   -1.0829    5.1457 C   0  0  0  0  0  4           0  0  0
   -0.4823    0.0000    1.4324 C   0  0  0  0  0  4           0  0  0
    0.0000    0.0000    0.0000 C   0  0  0  0  0  4           0  0  0
    1.9669   -1.1911    0.6877 C   0  0  0  0  0  4           0  0  0
    2.0346    0.1585   -1.3492 C   0  0  0  0  0  4           0  0  0
   -4.5618   -0.7412    1.4296 C   0  0  0  0  0  4           0  0  0
   -0.2671   -0.8479    4.2697 C   0  0  0  0  0  4           0  0  0
    1.4958   -2.4752    0.0129 C   0  0  0  0  0  4           0  0  0
    1.6004    1.4694   -1.9967 C   0  0  0  0  0  4           0  0  0
  1 10  2  0     0  0
  2  4  1  0     0  0
  2 10  1  0     0  0
  3 11  1  0     0  0
  3 12  1  0     0  0
  3 13  1  0     0  0
  4  5  1  0     0  0
  4  6  2  0     0  0
  5  7  2  0     0  0
  5 14  1  0     0  0
  6  8  1  0     0  0
  6 15  1  0     0  0
  7  9  1  0     0  0
  8  9  2  0     0  0
 10 11  1  0     0  0
 12 16  1  0     0  0
 13 17  1  0     0  0
M  END
> <standard_type>
pIC50

> <# Confs.>
25

> <canonical_smiles>
CC1=CC=CC(C)=C1NC(CN(CC)CC)=O

> <standard_relation>
=

> <Publication_ID>
nan

> <predicted_activity_value>
nan

> <actual_activity_value>
-2.419790586106363

> <Compound>
Lidocaine 

> <standard_units>
uM

> hash
9719401595256226579

$$$$
27
XXILIB    08252103503D 0   0.00000     0.00000

 17 17  0     1  0            999 V2000
    0.1679   -0.5224    2.3370 O   0  0  0  0  0  2           0  0  0
   -1.6986    0.6422    1.5870 N   0  0  0  0  0  3           0  0  0
    1.4652    0.0000   -0.0000 N   0  0  2  0  0  3           0  0  0
   -2.3893    0.7972    2.8037 C   0  0  0  0  0  4           0  0  0
   -3.2033    1.9534    2.9397 C   0  0  0  0  0  4           0  0  0
   -2.3125   -0.1248    3.8773 C   0  0  0  0  0  4           0  0  0
   -3.9142    2.1728    4.1302 C   0  0  0  0  0  4           0  0  0
   -3.0446    0.1317    5.0528 C   0  0  0  0  0  4           0  0  0
   -3.8357    1.2678    5.1798 C   0  0  0  0  0  4           0  0  0
   -0.4823    0.0000    1.4324 C   0  0  0  0  0  4           0  0  0
    0.0000    0.0000    0.0000 C   0  0  0  0  0  4           0  0  0
    1.9669    0.0000   -1.3753 C   0  0  0  0  0  4           0  0  0
    2.0346    1.0892    0.8119 C   0  0  0  0  0  4           0  0  0
   -3.3376    2.9784    1.8418 C   0  0  0  0  0  4           0  0  0
   -1.4886   -1.3846    3.8584 C   0  0  0  0  0  4           0  0  0
    1.4958    1.2264   -2.1500 C   0  0  0  0  0  4           0  0  0
    3.5596    1.0690    0.7968 C   0  0  0  0  0  4           0  0  0
  1 10  2  0     0  0
  2  4  1  0     0  0
  2 10  1  0     0  0
  3 11  1  0     0  0
  3 12  1  0     0  0
  3 13  1  0     0  0
  4  5  1  0     0  0
  4  6  2  0     0  0
  5  7  2  0     0  0
  5 14  1  0     0  0
  6  8  1  0     0  0
  6 15  1  0     0  0
  7  9  1  0     0  0
  8  9  2  0     0  0
 10 11  1  0     0  0
 12 16  1  0     0  0
 13 17  1  0     0  0
M  END
> <standard_type>
pIC50

> <# Confs.>
25

> <canonical_smiles>
CC1=CC=CC(C)=C1NC(CN(CC)CC)=O

> <standard_relation>
=

> <Publication_ID>
nan

> <predicted_activity_value>
nan

> <actual_activity_value>
-2.419790586106363

> <Compound>
Lidocaine 

> <standard_units>
uM

> hash
9719401595256226579

$$$$
27
XXILIB    08252103503D 0   0.00000     0.00000

 17 17  0     1  0            999 V2000
    0.1679    0.5224    2.3370 O   0  0  0  0  0  2           0  0  0
   -1.7029   -0.6345    1.5856 N   0  0  0  0  0  3           0  0  0
    1.4686    0.0000   -0.0000 N   0  0  2  0  0  3           0  0  0
   -2.3945   -0.7876    2.8020 C   0  0  0  0  0  4           0  0  0
   -3.2161   -1.9387    2.9354 C   0  0  0  0  0  4           0  0  0
   -2.3130    0.1324    3.8770 C   0  0  0  0  0  4           0  0  0
   -3.9390   -2.1492    4.1203 C   0  0  0  0  0  4           0  0  0
   -3.0518   -0.1186    5.0493 C   0  0  0  0  0  4           0  0  0
   -3.8572   -1.2453    5.1706 C   0  0  0  0  0  4           0  0  0
   -0.4823    0.0000    1.4324 C   0  0  0  0  0  4           0  0  0
    0.0000    0.0000    0.0000 C   0  0  0  0  0  4           0  0  0
    1.9858    0.0000   -1.3696 C   0  0  0  0  0  4           0  0  0
    1.9853   -1.1592    0.7464 C   0  0  0  0  0  4           0  0  0
   -3.3526   -2.9634    1.8374 C   0  0  0  0  0  4           0  0  0
   -1.4804    1.3864    3.8611 C   0  0  0  0  0  4           0  0  0
    3.5107   -0.0000   -1.3991 C   0  0  0  0  0  4           0  0  0
    1.5209   -2.4779    0.1368 C   0  0  0  0  0  4           0  0  0
  1 10  2  0     0  0
  2  4  1  0     0  0
  2 10  1  0     0  0
  3 11  1  0     0  0
  3 12  1  0     0  0
  3 13  1  0     0  0
  4  5  1  0     0  0
  4  6  2  0     0  0
  5  7  2  0     0  0
  5 14  1  0     0  0
  6  8  1  0     0  0
  6 15  1  0     0  0
  7  9  1  0     0  0
  8  9  2  0     0  0
 10 11  1  0     0  0
 12 16  1  0     0  0
 13 17  1  0     0  0
M  END
> <standard_type>
pIC50

> <# Confs.>
25

> <canonical_smiles>
CC1=CC=CC(C)=C1NC(CN(CC)CC)=O

> <standard_relation>
=

> <Publication_ID>
nan

> <predicted_activity_value>
nan

> <actual_activity_value>
-2.419790586106363

> <Compound>
Lidocaine 

> <standard_units>
uM

> hash
9719401595256226579

$$$$
27
XXILIB    08252103503D 0   0.00000     0.00000

 17 17  0     1  0            999 V2000
    0.1679    0.5224    2.3370 O   0  0  0  0  0  2           0  0  0
   -1.7029   -0.6345    1.5856 N   0  0  0  0  0  3           0  0  0
    1.4686    0.0000    0.0000 N   0  0  2  0  0  3           0  0  0
   -2.3945   -0.7876    2.8020 C   0  0  0  0  0  4           0  0  0
   -3.2161   -1.9387    2.9354 C   0  0  0  0  0  4           0  0  0
   -2.3130    0.1324    3.8770 C   0  0  0  0  0  4           0  0  0
   -3.9390   -2.1492    4.1203 C   0  0  0  0  0  4           0  0  0
   -3.0518   -0.1186    5.0493 C   0  0  0  0  0  4           0  0  0
   -3.8572   -1.2453    5.1706 C   0  0  0  0  0  4           0  0  0
   -0.4823    0.0000    1.4324 C   0  0  0  0  0  4           0  0  0
    0.0000    0.0000    0.0000 C   0  0  0  0  0  4           0  0  0
    1.9858    0.0000   -1.3696 C   0  0  0  0  0  4           0  0  0
    1.9853   -1.1592    0.7464 C   0  0  0  0  0  4           0  0  0
   -3.3526   -2.9634    1.8374 C   0  0  0  0  0  4           0  0  0
   -1.4804    1.3864    3.8611 C   0  0  0  0  0  4           0  0  0
    1.5234    1.2264   -2.1495 C   0  0  0  0  0  4           0  0  0
    3.5101   -1.1873    0.7645 C   0  0  0  0  0  4           0  0  0
  1 10  2  0     0  0
  2  4  1  0     0  0
  2 10  1  0     0  0
  3 11  1  0     0  0
  3 12  1  0     0  0
  3 13  1  0     0  0
  4  5  1  0     0  0
  4  6  2  0     0  0
  5  7  2  0     0  0
  5 14  1  0     0  0
  6  8  1  0     0  0
  6 15  1  0     0  0
  7  9  1  0     0  0
  8  9  2  0     0  0
 10 11  1  0     0  0
 12 16  1  0     0  0
 13 17  1  0     0  0
M  END
> <standard_type>
pIC50

> <# Confs.>
25

> <canonical_smiles>
CC1=CC=CC(C)=C1NC(CN(CC)CC)=O

> <standard_relation>
=

> <Publication_ID>
nan

> <predicted_activity_value>
nan

> <actual_activity_value>
-2.419790586106363

> <Compound>
Lidocaine 

> <standard_units>
uM

> hash
9719401595256226579

$$$$
27
XXILIB    08252103503D 0   0.00000     0.00000

 17 17  0     1  0            999 V2000
    0.1679   -0.5224    2.3370 O   0  0  0  0  0  2           0  0  0
   -1.6986    0.6422    1.5870 N   0  0  0  0  0  3           0  0  0
    1.4652    0.0000   -0.0000 N   0  0  2  0  0  3           0  0  0
   -2.3893    0.7972    2.8037 C   0  0  0  0  0  4           0  0  0
   -3.2033    1.9534    2.9397 C   0  0  0  0  0  4           0  0  0
   -2.3125   -0.1248    3.8773 C   0  0  0  0  0  4           0  0  0
   -3.9142    2.1728    4.1302 C   0  0  0  0  0  4           0  0  0
   -3.0446    0.1317    5.0528 C   0  0  0  0  0  4           0  0  0
   -3.8357    1.2678    5.1798 C   0  0  0  0  0  4           0  0  0
   -0.4823    0.0000    1.4324 C   0  0  0  0  0  4           0  0  0
    0.0000    0.0000    0.0000 C   0  0  0  0  0  4           0  0  0
    1.9669    0.0000   -1.3753 C   0  0  0  0  0  4           0  0  0
    2.0346    1.0892    0.8119 C   0  0  0  0  0  4           0  0  0
   -3.3376    2.9784    1.8418 C   0  0  0  0  0  4           0  0  0
   -1.4886   -1.3846    3.8584 C   0  0  0  0  0  4           0  0  0
    3.4914   -0.0000   -1.4220 C   0  0  0  0  0  4           0  0  0
    1.6004    2.4603    0.3042 C   0  0  0  0  0  4           0  0  0
  1 10  2  0     0  0
  2  4  1  0     0  0
  2 10  1  0     0  0
  3 11  1  0     0  0
  3 12  1  0     0  0
  3 13  1  0     0  0
  4  5  1  0     0  0
  4  6  2  0     0  0
  5  7  2  0     0  0
  5 14  1  0     0  0
  6  8  1  0     0  0
  6 15  1  0     0  0
  7  9  1  0     0  0
  8  9  2  0     0  0
 10 11  1  0     0  0
 12 16  1  0     0  0
 13 17  1  0     0  0
M  END
> <standard_type>
pIC50

> <# Confs.>
25

> <canonical_smiles>
CC1=CC=CC(C)=C1NC(CN(CC)CC)=O

> <standard_relation>
=

> <Publication_ID>
nan

> <predicted_activity_value>
nan

> <actual_activity_value>
-2.419790586106363

> <Compound>
Lidocaine 

> <standard_units>
uM

> hash
9719401595256226579

$$$$
27
XXILIB    08252103503D 0   0.00000     0.00000

 17 17  0     1  0            999 V2000
    0.1679    0.5224    2.3370 O   0  0  0  0  0  2           0  0  0
   -1.7029   -0.6345    1.5856 N   0  0  0  0  0  3           0  0  0
    1.4652   -0.0000    0.0000 N   0  0  2  0  0  3           0  0  0
   -2.3945   -0.7876    2.8020 C   0  0  0  0  0  4           0  0  0
   -3.2161   -1.9387    2.9354 C   0  0  0  0  0  4           0  0  0
   -2.3130    0.1324    3.8770 C   0  0  0  0  0  4           0  0  0
   -3.9390   -2.1492    4.1203 C   0  0  0  0  0  4           0  0  0
   -3.0518   -0.1186    5.0493 C   0  0  0  0  0  4           0  0  0
   -3.8572   -1.2453    5.1706 C   0  0  0  0  0  4           0  0  0
   -0.4823    0.0000    1.4324 C   0  0  0  0  0  4           0  0  0
    0.0000    0.0000    0.0000 C   0  0  0  0  0  4           0  0  0
    1.9669   -1.1911    0.6877 C   0  0  0  0  0  4           0  0  0
    2.0346    0.1585   -1.3492 C   0  0  0  0  0  4           0  0  0
   -3.3526   -2.9634    1.8374 C   0  0  0  0  0  4           0  0  0
   -1.4804    1.3864    3.8611 C   0  0  0  0  0  4           0  0  0
    1.4958   -2.4752    0.0129 C   0  0  0  0  0  4           0  0  0
    1.6004    1.4694   -1.9967 C   0  0  0  0  0  4           0  0  0
  1 10  2  0     0  0
  2  4  1  0     0  0
  2 10  1  0     0  0
  3 11  1  0     0  0
  3 12  1  0     0  0
  3 13  1  0     0  0
  4  5  1  0     0  0
  4  6  2  0     0  0
  5  7  2  0     0  0
  5 14  1  0     0  0
  6  8  1  0     0  0
  6 15  1  0     0  0
  7  9  1  0     0  0
  8  9  2  0     0  0
 10 11  1  0     0  0
 12 16  1  0     0  0
 13 17  1  0     0  0
M  END
> <standard_type>
pIC50

> <# Confs.>
25

> <canonical_smiles>
CC1=CC=CC(C)=C1NC(CN(CC)CC)=O

> <standard_relation>
=

> <Publication_ID>
nan

> <predicted_activity_value>
nan

> <actual_activity_value>
-2.419790586106363

> <Compound>
Lidocaine 

> <standard_units>
uM

> hash
9719401595256226579

$$$$
27
XXILIB    08252103503D 0   0.00000     0.00000

 17 17  0     1  0            999 V2000
    0.1679    0.5224    2.3370 O   0  0  0  0  0  2           0  0  0
   -1.7029   -0.6345    1.5856 N   0  0  0  0  0  3           0  0  0
    1.4652   -0.0000    0.0000 N   0  0  2  0  0  3           0  0  0
   -2.3945   -0.7876    2.8020 C   0  0  0  0  0  4           0  0  0
   -3.2161   -1.9387    2.9354 C   0  0  0  0  0  4           0  0  0
   -2.3130    0.1324    3.8770 C   0  0  0  0  0  4           0  0  0
   -3.9390   -2.1492    4.1203 C   0  0  0  0  0  4           0  0  0
   -3.0518   -0.1186    5.0493 C   0  0  0  0  0  4           0  0  0
   -3.8572   -1.2453    5.1706 C   0  0  0  0  0  4           0  0  0
   -0.4823    0.0000    1.4324 C   0  0  0  0  0  4           0  0  0
    0.0000    0.0000    0.0000 C   0  0  0  0  0  4           0  0  0
    1.9669   -1.1911    0.6877 C   0  0  0  0  0  4           0  0  0
    2.0346    0.1585   -1.3492 C   0  0  0  0  0  4           0  0  0
   -3.3526   -2.9634    1.8374 C   0  0  0  0  0  4           0  0  0
   -1.4804    1.3864    3.8611 C   0  0  0  0  0  4           0  0  0
    3.4914   -1.2315    0.7110 C   0  0  0  0  0  4           0  0  0
    1.6004   -0.9667   -2.2828 C   0  0  0  0  0  4           0  0  0
  1 10  2  0     0  0
  2  4  1  0     0  0
  2 10  1  0     0  0
  3 11  1  0     0  0
  3 12  1  0     0  0
  3 13  1  0     0  0
  4  5  1  0     0  0
  4  6  2  0     0  0
  5  7  2  0     0  0
  5 14  1  0     0  0
  6  8  1  0     0  0
  6 15  1  0     0  0
  7  9  1  0     0  0
  8  9  2  0     0  0
 10 11  1  0     0  0
 12 16  1  0     0  0
 13 17  1  0     0  0
M  END
> <standard_type>
pIC50

> <# Confs.>
25

> <canonical_smiles>
CC1=CC=CC(C)=C1NC(CN(CC)CC)=O

> <standard_relation>
=

> <Publication_ID>
nan

> <predicted_activity_value>
nan

> <actual_activity_value>
-2.419790586106363

> <Compound>
Lidocaine 

> <standard_units>
uM

> hash
9719401595256226579

$$$$
27
XXILIB    08252103503D 0   0.00000     0.00000

 17 17  0     1  0            999 V2000
    0.1679   -0.5224    2.3370 O   0  0  0  0  0  2           0  0  0
   -1.6986    0.6422    1.5870 N   0  0  0  0  0  3           0  0  0
    1.4652    0.0000   -0.0000 N   0  0  2  0  0  3           0  0  0
   -2.3893    0.7972    2.8037 C   0  0  0  0  0  4           0  0  0
   -3.8068    0.8592    2.7365 C   0  0  0  0  0  4           0  0  0
   -1.7518    0.8932    4.0659 C   0  0  0  0  0  4           0  0  0
   -4.5570    1.0197    3.9123 C   0  0  0  0  0  4           0  0  0
   -2.5421    1.0502    5.2210 C   0  0  0  0  0  4           0  0  0
   -3.9289    1.1143    5.1465 C   0  0  0  0  0  4           0  0  0
   -0.4823    0.0000    1.4324 C   0  0  0  0  0  4           0  0  0
    0.0000    0.0000    0.0000 C   0  0  0  0  0  4           0  0  0
    1.9669    0.0000   -1.3753 C   0  0  0  0  0  4           0  0  0
    2.0346    1.0892    0.8119 C   0  0  0  0  0  4           0  0  0
   -4.5571    0.7622    1.4319 C   0  0  0  0  0  4           0  0  0
   -0.2614    0.8413    4.2715 C   0  0  0  0  0  4           0  0  0
    1.4958    1.2264   -2.1500 C   0  0  0  0  0  4           0  0  0
    3.5596    1.0690    0.7968 C   0  0  0  0  0  4           0  0  0
  1 10  2  0     0  0
  2  4  1  0     0  0
  2 10  1  0     0  0
  3 11  1  0     0  0
  3 12  1  0     0  0
  3 13  1  0     0  0
  4  5  1  0     0  0
  4  6  2  0     0  0
  5  7  2  0     0  0
  5 14  1  0     0  0
  6  8  1  0     0  0
  6 15  1  0     0  0
  7  9  1  0     0  0
  8  9  2  0     0  0
 10 11  1  0     0  0
 12 16  1  0     0  0
 13 17  1  0     0  0
M  END
> <standard_type>
pIC50

> <# Confs.>
25

> <canonical_smiles>
CC1=CC=CC(C)=C1NC(CN(CC)CC)=O

> <standard_relation>
=

> <Publication_ID>
nan

> <predicted_activity_value>
nan

> <actual_activity_value>
-2.419790586106363

> <Compound>
Lidocaine 

> <standard_units>
uM

> hash
9719401595256226579

$$$$
32
XXILIB    08252103503D 0   0.00000     0.00000

 32 36  0     1  0            999 V2000
    0.5032    4.8502   -4.8175 F   0  0  0  0  0  1           0  0  0
   -7.2442    3.8725    0.8948 O   0  0  0  0  0  2           0  0  0
    2.1412    1.1484    0.0000 N   0  0  0  0  0  3           0  0  0
   -5.7360    2.1940    0.3780 N   0  0  0  0  0  3           0  0  0
    2.1376   -1.0709    0.0211 N   0  0  0  0  0  3           0  0  0
   -3.5928    2.6914   -0.4511 N   0  0  0  0  0  3           0  0  0
   -4.2096    0.4362   -0.1253 N   0  0  1  0  0  3           0  0  0
    0.0000    0.0000    0.0000 N   0  0  2  0  0  3           0  0  0
    0.7924    4.3006   -3.6297 C   0  0  0  0  0  4           0  0  0
   -6.1478    3.5095    0.4831 C   0  0  0  0  0  4           0  0  0
    1.3590    0.0000    0.0000 C   0  0  0  0  0  4           0  0  0
   -4.4754    1.7976   -0.0815 C   0  0  0  0  0  4           0  0  0
    3.4679    0.7631   -0.0688 C   0  0  0  0  0  4           0  0  0
    3.4298   -0.6243   -0.0457 C   0  0  0  0  0  4           0  0  0
   -3.9540    4.0110   -0.3749 C   0  0  0  0  0  4           0  0  0
    1.3941    3.1597   -1.1539 C   0  0  0  0  0  4           0  0  0
   -0.2113    3.6660   -2.9060 C   0  0  0  0  0  4           0  0  0
    2.0922    4.3720   -3.1402 C   0  0  0  0  0  4           0  0  0
   -5.1300    4.4849    0.0482 C   0  0  0  0  0  4           0  0  0
    4.6695    1.4797   -0.1353 C   0  0  0  0  0  4           0  0  0
    4.6294   -1.3545   -0.0890 C   0  0  0  0  0  4           0  0  0
    0.0910    3.0948   -1.6701 C   0  0  0  0  0  4           0  0  0
    2.3926    3.8002   -1.9037 C   0  0  0  0  0  4           0  0  0
    5.8559    0.7404   -0.1834 C   0  0  0  0  0  4           0  0  0
    5.8381   -0.6540   -0.1602 C   0  0  0  0  0  4           0  0  0
    1.7198    2.5301    0.1662 C   0  0  0  0  0  4           0  0  0
   -2.8732   -0.1463    0.0447 C   0  0  2  0  0  4           0  0  0
   -0.6839    0.0000    1.2946 C   0  0  0  0  0  4           0  0  0
   -0.6847   -0.6950   -1.0919 C   0  0  0  0  0  4           0  0  0
   -5.3020   -0.5310   -0.2252 C   0  0  0  0  0  4           0  0  0
   -2.0889    0.5824    1.1441 C   0  0  0  0  0  4           0  0  0
   -2.0911   -0.1253   -1.2757 C   0  0  0  0  0  4           0  0  0
  1  9  1  0     0  0
  2 10  2  0     0  0
  3 11  1  0     0  0
  3 13  1  0     0  0
  3 26  1  0     0  0
  4 10  1  0     0  0
  4 12  1  0     0  0
  5 11  2  0     0  0
  5 14  1  0     0  0
  6 12  2  0     0  0
  6 15  1  0     0  0
  7 12  1  0     0  0
  7 27  1  0     0  0
  7 30  1  0     0  0
  8 11  1  0     0  0
  8 28  1  0     0  0
  8 29  1  0     0  0
  9 17  2  0     0  0
  9 18  1  0     0  0
 10 19  1  0     0  0
 13 14  2  0     0  0
 13 20  1  0     0  0
 14 21  1  0     0  0
 15 19  2  0     0  0
 16 22  2  0     0  0
 16 23  1  0     0  0
 16 26  1  0     0  0
 17 22  1  0     0  0
 18 23  2  0     0  0
 20 24  2  0     0  0
 21 25  2  0     0  0
 24 25  1  0     0  0
 27 31  1  0     0  0
 27 32  1  0     0  0
 28 31  1  0     0  0
 29 32  1  0     0  0
M  END
> <standard_type>
pIC50

> <# Confs.>
25

> <canonical_smiles>
CN(C1=NC=CC(N1)=O)C(CC2)CCN2C3=NC4=C(N3CC5=CC=C(F)C=C5)C=CC=C4

> <standard_relation>
=

> <Publication_ID>
nan

> <predicted_activity_value>
nan

> <actual_activity_value>
0.45593195564972433

> <Compound>
Mizolastine

> <standard_units>
uM

> hash
7367034220649954496

$$$$
32
XXILIB    08252103503D 0   0.00000     0.00000

 32 36  0     1  0            999 V2000
    1.7844    6.8470   -0.6507 F   0  0  0  0  0  1           0  0  0
   -7.0067    4.1991    0.1471 O   0  0  0  0  0  2           0  0  0
    2.1412    0.5742   -0.9945 N   0  0  0  0  0  3           0  0  0
   -5.6174    2.3538   -0.0068 N   0  0  0  0  0  3           0  0  0
    2.1376   -0.5172    0.9380 N   0  0  0  0  0  3           0  0  0
   -3.6053    2.4384   -1.2201 N   0  0  0  0  0  3           0  0  0
   -4.2096    0.4362   -0.1253 N   0  0  1  0  0  3           0  0  0
    0.0000    0.0000    0.0000 N   0  0  2  0  0  3           0  0  0
    1.7678    5.5533   -1.0003 C   0  0  0  0  0  4           0  0  0
   -5.9866    3.6602   -0.2679 C   0  0  0  0  0  4           0  0  0
    1.3590   -0.0000    0.0000 C   0  0  0  0  0  4           0  0  0
   -4.4422    1.7582   -0.4774 C   0  0  0  0  0  4           0  0  0
    3.4679    0.3220   -0.6953 C   0  0  0  0  0  4           0  0  0
    3.4298   -0.3517    0.5179 C   0  0  0  0  0  4           0  0  0
   -3.9284    3.7366   -1.5163 C   0  0  0  0  0  4           0  0  0
    1.7314    2.8595   -1.7324 C   0  0  0  0  0  4           0  0  0
    2.9044    4.9804   -1.5605 C   0  0  0  0  0  4           0  0  0
    0.6145    4.8033   -0.7959 C   0  0  0  0  0  4           0  0  0
   -5.0238    4.3892   -1.1151 C   0  0  0  0  0  4           0  0  0
    4.6695    0.6227   -1.3492 C   0  0  0  0  0  4           0  0  0
    4.6294   -0.7543    1.1286 C   0  0  0  0  0  4           0  0  0
    2.8856    3.6341   -1.9240 C   0  0  0  0  0  4           0  0  0
    0.5976    3.4568   -1.1604 C   0  0  0  0  0  4           0  0  0
    5.8559    0.2113   -0.7330 C   0  0  0  0  0  4           0  0  0
    5.8381   -0.4658    0.4862 C   0  0  0  0  0  4           0  0  0
    1.7198    1.4090   -2.1080 C   0  0  0  0  0  4           0  0  0
   -2.8732   -0.1463    0.0447 C   0  0  2  0  0  4           0  0  0
   -0.6839   -0.0000    1.2946 C   0  0  0  0  0  4           0  0  0
   -0.6847   -0.6950   -1.0919 C   0  0  0  0  0  4           0  0  0
   -5.3222   -0.4457    0.2260 C   0  0  0  0  0  4           0  0  0
   -2.0889    0.5824    1.1441 C   0  0  0  0  0  4           0  0  0
   -2.0911   -0.1253   -1.2757 C   0  0  0  0  0  4           0  0  0
  1  9  1  0     0  0
  2 10  2  0     0  0
  3 11  1  0     0  0
  3 13  1  0     0  0
  3 26  1  0     0  0
  4 10  1  0     0  0
  4 12  1  0     0  0
  5 11  2  0     0  0
  5 14  1  0     0  0
  6 12  2  0     0  0
  6 15  1  0     0  0
  7 12  1  0     0  0
  7 27  1  0     0  0
  7 30  1  0     0  0
  8 11  1  0     0  0
  8 28  1  0     0  0
  8 29  1  0     0  0
  9 17  2  0     0  0
  9 18  1  0     0  0
 10 19  1  0     0  0
 13 14  2  0     0  0
 13 20  1  0     0  0
 14 21  1  0     0  0
 15 19  2  0     0  0
 16 22  2  0     0  0
 16 23  1  0     0  0
 16 26  1  0     0  0
 17 22  1  0     0  0
 18 23  2  0     0  0
 20 24  2  0     0  0
 21 25  2  0     0  0
 24 25  1  0     0  0
 27 31  1  0     0  0
 27 32  1  0     0  0
 28 31  1  0     0  0
 29 32  1  0     0  0
M  END
> <standard_type>
pIC50

> <# Confs.>
25

> <canonical_smiles>
CN(C1=NC=CC(N1)=O)C(CC2)CCN2C3=NC4=C(N3CC5=CC=C(F)C=C5)C=CC=C4

> <standard_relation>
=

> <Publication_ID>
nan

> <predicted_activity_value>
nan

> <actual_activity_value>
0.45593195564972433

> <Compound>
Mizolastine

> <standard_units>
uM

> hash
7367034220649954496

$$$$
32
XXILIB    08252103503D 0   0.00000     0.00000

 32 36  0     1  0            999 V2000
    1.7844    6.8470   -0.6507 F   0  0  0  0  0  1           0  0  0
   -6.4988   -3.0313    2.0641 O   0  0  0  0  0  2           0  0  0
    2.1412    0.5742   -0.9945 N   0  0  0  0  0  3           0  0  0
   -5.3872   -1.3223    0.9675 N   0  0  0  0  0  3           0  0  0
    2.1376   -0.5172    0.9380 N   0  0  0  0  0  3           0  0  0
   -6.4817    0.0265   -0.6171 N   0  0  0  0  0  3           0  0  0
   -4.2096    0.4362   -0.1253 N   0  0  1  0  0  3           0  0  0
    0.0000   -0.0000    0.0000 N   0  0  2  0  0  3           0  0  0
    1.7678    5.5533   -1.0003 C   0  0  0  0  0  4           0  0  0
   -6.4850   -2.1130    1.2519 C   0  0  0  0  0  4           0  0  0
    1.3590   -0.0000    0.0000 C   0  0  0  0  0  4           0  0  0
   -5.3925   -0.2688    0.0469 C   0  0  0  0  0  4           0  0  0
    3.4679    0.3220   -0.6953 C   0  0  0  0  0  4           0  0  0
    3.4298   -0.3517    0.5179 C   0  0  0  0  0  4           0  0  0
   -7.5971   -0.7330   -0.3790 C   0  0  0  0  0  4           0  0  0
    1.7314    2.8595   -1.7324 C   0  0  0  0  0  4           0  0  0
    2.9044    4.9804   -1.5605 C   0  0  0  0  0  4           0  0  0
    0.6145    4.8033   -0.7959 C   0  0  0  0  0  4           0  0  0
   -7.6884   -1.7557    0.4770 C   0  0  0  0  0  4           0  0  0
    4.6695    0.6227   -1.3492 C   0  0  0  0  0  4           0  0  0
    4.6294   -0.7543    1.1286 C   0  0  0  0  0  4           0  0  0
    2.8856    3.6341   -1.9240 C   0  0  0  0  0  4           0  0  0
    0.5976    3.4568   -1.1604 C   0  0  0  0  0  4           0  0  0
    5.8559    0.2113   -0.7330 C   0  0  0  0  0  4           0  0  0
    5.8381   -0.4658    0.4862 C   0  0  0  0  0  4           0  0  0
    1.7198    1.4090   -2.1080 C   0  0  0  0  0  4           0  0  0
   -2.8732   -0.1463    0.0447 C   0  0  2  0  0  4           0  0  0
   -0.6839   -0.0000    1.2946 C   0  0  0  0  0  4           0  0  0
   -0.6847   -0.6950   -1.0919 C   0  0  0  0  0  4           0  0  0
   -4.2303    1.8121   -0.6207 C   0  0  0  0  0  4           0  0  0
   -2.0889    0.5824    1.1441 C   0  0  0  0  0  4           0  0  0
   -2.0911   -0.1253   -1.2757 C   0  0  0  0  0  4           0  0  0
  1  9  1  0     0  0
  2 10  2  0     0  0
  3 11  1  0     0  0
  3 13  1  0     0  0
  3 26  1  0     0  0
  4 10  1  0     0  0
  4 12  1  0     0  0
  5 11  2  0     0  0
  5 14  1  0     0  0
  6 12  2  0     0  0
  6 15  1  0     0  0
  7 12  1  0     0  0
  7 27  1  0     0  0
  7 30  1  0     0  0
  8 11  1  0     0  0
  8 28  1  0     0  0
  8 29  1  0     0  0
  9 17  2  0     0  0
  9 18  1  0     0  0
 10 19  1  0     0  0
 13 14  2  0     0  0
 13 20  1  0     0  0
 14 21  1  0     0  0
 15 19  2  0     0  0
 16 22  2  0     0  0
 16 23  1  0     0  0
 16 26  1  0     0  0
 17 22  1  0     0  0
 18 23  2  0     0  0
 20 24  2  0     0  0
 21 25  2  0     0  0
 24 25  1  0     0  0
 27 31  1  0     0  0
 27 32  1  0     0  0
 28 31  1  0     0  0
 29 32  1  0     0  0
M  END
> <standard_type>
pIC50

> <# Confs.>
25

> <canonical_smiles>
CN(C1=NC=CC(N1)=O)C(CC2)CCN2C3=NC4=C(N3CC5=CC=C(F)C=C5)C=CC=C4

> <standard_relation>
=

> <Publication_ID>
nan

> <predicted_activity_value>
nan

> <actual_activity_value>
0.45593195564972433

> <Compound>
Mizolastine

> <standard_units>
uM

> hash
7367034220649954496

$$$$
32
XXILIB    08252103503D 0   0.00000     0.00000

 32 36  0     1  0            999 V2000
    0.5032    4.8502   -4.8175 F   0  0  0  0  0  1           0  0  0
   -6.9938    3.5612   -2.2560 O   0  0  0  0  0  2           0  0  0
    2.1412    1.1484    0.0000 N   0  0  0  0  0  3           0  0  0
   -5.6031    2.0365   -1.2070 N   0  0  0  0  0  3           0  0  0
    2.1376   -1.0709    0.0211 N   0  0  0  0  0  3           0  0  0
   -3.6189    2.7216   -0.1479 N   0  0  0  0  0  3           0  0  0
   -4.2096    0.4362   -0.1253 N   0  0  1  0  0  3           0  0  0
    0.0000    0.0000    0.0000 N   0  0  2  0  0  3           0  0  0
    0.7924    4.3006   -3.6297 C   0  0  0  0  0  4           0  0  0
   -5.9744    3.3004   -1.6267 C   0  0  0  0  0  4           0  0  0
    1.3590    0.0000    0.0000 C   0  0  0  0  0  4           0  0  0
   -4.4422    1.7582   -0.4774 C   0  0  0  0  0  4           0  0  0
    3.4679    0.7631   -0.0688 C   0  0  0  0  0  4           0  0  0
    3.4298   -0.6243   -0.0457 C   0  0  0  0  0  4           0  0  0
   -3.9359    3.9934   -0.5474 C   0  0  0  0  0  4           0  0  0
    1.3941    3.1597   -1.1539 C   0  0  0  0  0  4           0  0  0
   -0.2113    3.6660   -2.9060 C   0  0  0  0  0  4           0  0  0
    2.0922    4.3720   -3.1402 C   0  0  0  0  0  4           0  0  0
   -5.0169    4.3558   -1.2451 C   0  0  0  0  0  4           0  0  0
    4.6695    1.4797   -0.1353 C   0  0  0  0  0  4           0  0  0
    4.6294   -1.3545   -0.0890 C   0  0  0  0  0  4           0  0  0
    0.0910    3.0948   -1.6701 C   0  0  0  0  0  4           0  0  0
    2.3926    3.8002   -1.9037 C   0  0  0  0  0  4           0  0  0
    5.8559    0.7404   -0.1834 C   0  0  0  0  0  4           0  0  0
    5.8381   -0.6540   -0.1602 C   0  0  0  0  0  4           0  0  0
    1.7198    2.5301    0.1662 C   0  0  0  0  0  4           0  0  0
   -2.8732   -0.1463    0.0447 C   0  0  2  0  0  4           0  0  0
   -0.6839   -0.0000    1.2946 C   0  0  0  0  0  4           0  0  0
   -0.6847   -0.6950   -1.0919 C   0  0  0  0  0  4           0  0  0
   -5.3222   -0.4457    0.2260 C   0  0  0  0  0  4           0  0  0
   -2.0889    0.5824    1.1441 C   0  0  0  0  0  4           0  0  0
   -2.0911   -0.1253   -1.2757 C   0  0  0  0  0  4           0  0  0
  1  9  1  0     0  0
  2 10  2  0     0  0
  3 11  1  0     0  0
  3 13  1  0     0  0
  3 26  1  0     0  0
  4 10  1  0     0  0
  4 12  1  0     0  0
  5 11  2  0     0  0
  5 14  1  0     0  0
  6 12  2  0     0  0
  6 15  1  0     0  0
  7 12  1  0     0  0
  7 27  1  0     0  0
  7 30  1  0     0  0
  8 11  1  0     0  0
  8 28  1  0     0  0
  8 29  1  0     0  0
  9 17  2  0     0  0
  9 18  1  0     0  0
 10 19  1  0     0  0
 13 14  2  0     0  0
 13 20  1  0     0  0
 14 21  1  0     0  0
 15 19  2  0     0  0
 16 22  2  0     0  0
 16 23  1  0     0  0
 16 26  1  0     0  0
 17 22  1  0     0  0
 18 23  2  0     0  0
 20 24  2  0     0  0
 21 25  2  0     0  0
 24 25  1  0     0  0
 27 31  1  0     0  0
 27 32  1  0     0  0
 28 31  1  0     0  0
 29 32  1  0     0  0
M  END
> <standard_type>
pIC50

> <# Confs.>
25

> <canonical_smiles>
CN(C1=NC=CC(N1)=O)C(CC2)CCN2C3=NC4=C(N3CC5=CC=C(F)C=C5)C=CC=C4

> <standard_relation>
=

> <Publication_ID>
nan

> <predicted_activity_value>
nan

> <actual_activity_value>
0.45593195564972433

> <Compound>
Mizolastine

> <standard_units>
uM

> hash
7367034220649954496

$$$$
32
XXILIB    08252103503D 0   0.00000     0.00000

 32 36  0     1  0            999 V2000
    0.5032    4.8502   -4.8175 F   0  0  0  0  0  1           0  0  0
   -6.4988   -3.0313    2.0641 O   0  0  0  0  0  2           0  0  0
    2.1412    1.1484    0.0000 N   0  0  0  0  0  3           0  0  0
   -5.3872   -1.3223    0.9675 N   0  0  0  0  0  3           0  0  0
    2.1376   -1.0709    0.0211 N   0  0  0  0  0  3           0  0  0
   -6.4817    0.0265   -0.6171 N   0  0  0  0  0  3           0  0  0
   -4.2096    0.4362   -0.1253 N   0  0  1  0  0  3           0  0  0
    0.0000   -0.0000    0.0000 N   0  0  2  0  0  3           0  0  0
    0.7924    4.3006   -3.6297 C   0  0  0  0  0  4           0  0  0
   -6.4850   -2.1130    1.2519 C   0  0  0  0  0  4           0  0  0
    1.3590    0.0000    0.0000 C   0  0  0  0  0  4           0  0  0
   -5.3925   -0.2688    0.0469 C   0  0  0  0  0  4           0  0  0
    3.4679    0.7631   -0.0688 C   0  0  0  0  0  4           0  0  0
    3.4298   -0.6243   -0.0457 C   0  0  0  0  0  4           0  0  0
   -7.5971   -0.7330   -0.3790 C   0  0  0  0  0  4           0  0  0
    1.3941    3.1597   -1.1539 C   0  0  0  0  0  4           0  0  0
   -0.2113    3.6660   -2.9060 C   0  0  0  0  0  4           0  0  0
    2.0922    4.3720   -3.1402 C   0  0  0  0  0  4           0  0  0
   -7.6884   -1.7557    0.4770 C   0  0  0  0  0  4           0  0  0
    4.6695    1.4797   -0.1353 C   0  0  0  0  0  4           0  0  0
    4.6294   -1.3545   -0.0890 C   0  0  0  0  0  4           0  0  0
    0.0910    3.0948   -1.6701 C   0  0  0  0  0  4           0  0  0
    2.3926    3.8002   -1.9037 C   0  0  0  0  0  4           0  0  0
    5.8559    0.7404   -0.1834 C   0  0  0  0  0  4           0  0  0
    5.8381   -0.6540   -0.1602 C   0  0  0  0  0  4           0  0  0
    1.7198    2.5301    0.1662 C   0  0  0  0  0  4           0  0  0
   -2.8732   -0.1463    0.0447 C   0  0  2  0  0  4           0  0  0
   -0.6839   -0.0000    1.2946 C   0  0  0  0  0  4           0  0  0
   -0.6847   -0.6950   -1.0919 C   0  0  0  0  0  4           0  0  0
   -4.2303    1.8121   -0.6207 C   0  0  0  0  0  4           0  0  0
   -2.0889    0.5824    1.1441 C   0  0  0  0  0  4           0  0  0
   -2.0911   -0.1253   -1.2757 C   0  0  0  0  0  4           0  0  0
  1  9  1  0     0  0
  2 10  2  0     0  0
  3 11  1  0     0  0
  3 13  1  0     0  0
  3 26  1  0     0  0
  4 10  1  0     0  0
  4 12  1  0     0  0
  5 11  2  0     0  0
  5 14  1  0     0  0
  6 12  2  0     0  0
  6 15  1  0     0  0
  7 12  1  0     0  0
  7 27  1  0     0  0
  7 30  1  0     0  0
  8 11  1  0     0  0
  8 28  1  0     0  0
  8 29  1  0     0  0
  9 17  2  0     0  0
  9 18  1  0     0  0
 10 19  1  0     0  0
 13 14  2  0     0  0
 13 20  1  0     0  0
 14 21  1  0     0  0
 15 19  2  0     0  0
 16 22  2  0     0  0
 16 23  1  0     0  0
 16 26  1  0     0  0
 17 22  1  0     0  0
 18 23  2  0     0  0
 20 24  2  0     0  0
 21 25  2  0     0  0
 24 25  1  0     0  0
 27 31  1  0     0  0
 27 32  1  0     0  0
 28 31  1  0     0  0
 29 32  1  0     0  0
M  END
> <standard_type>
pIC50

> <# Confs.>
25

> <canonical_smiles>
CN(C1=NC=CC(N1)=O)C(CC2)CCN2C3=NC4=C(N3CC5=CC=C(F)C=C5)C=CC=C4

> <standard_relation>
=

> <Publication_ID>
nan

> <predicted_activity_value>
nan

> <actual_activity_value>
0.45593195564972433

> <Compound>
Mizolastine

> <standard_units>
uM

> hash
7367034220649954496

$$$$
32
XXILIB    08252103503D 0   0.00000     0.00000

 32 36  0     1  0            999 V2000
    1.7844    6.8470   -0.6507 F   0  0  0  0  0  1           0  0  0
   -8.7128   -0.1445   -1.3261 O   0  0  0  0  0  2           0  0  0
    2.1412    0.5742   -0.9945 N   0  0  0  0  0  3           0  0  0
   -6.4971    0.1295   -0.7137 N   0  0  0  0  0  3           0  0  0
    2.1376   -0.5172    0.9380 N   0  0  0  0  0  3           0  0  0
   -5.4898   -1.2713    0.8836 N   0  0  0  0  0  3           0  0  0
   -4.2096    0.4362   -0.1253 N   0  0  1  0  0  3           0  0  0
    0.0000   -0.0000    0.0000 N   0  0  2  0  0  3           0  0  0
    1.7678    5.5533   -1.0003 C   0  0  0  0  0  4           0  0  0
   -7.7394   -0.4745   -0.6575 C   0  0  0  0  0  4           0  0  0
    1.3590   -0.0000    0.0000 C   0  0  0  0  0  4           0  0  0
   -5.3925   -0.2688    0.0469 C   0  0  0  0  0  4           0  0  0
    3.4679    0.3220   -0.6953 C   0  0  0  0  0  4           0  0  0
    3.4298   -0.3517    0.5179 C   0  0  0  0  0  4           0  0  0
   -6.7033   -1.8997    0.9844 C   0  0  0  0  0  4           0  0  0
    1.7314    2.8595   -1.7324 C   0  0  0  0  0  4           0  0  0
    2.9044    4.9804   -1.5605 C   0  0  0  0  0  4           0  0  0
    0.6145    4.8033   -0.7959 C   0  0  0  0  0  4           0  0  0
   -7.8113   -1.5919    0.3030 C   0  0  0  0  0  4           0  0  0
    4.6695    0.6227   -1.3492 C   0  0  0  0  0  4           0  0  0
    4.6294   -0.7543    1.1286 C   0  0  0  0  0  4           0  0  0
    2.8856    3.6341   -1.9240 C   0  0  0  0  0  4           0  0  0
    0.5976    3.4568   -1.1604 C   0  0  0  0  0  4           0  0  0
    5.8559    0.2113   -0.7330 C   0  0  0  0  0  4           0  0  0
    5.8381   -0.4658    0.4862 C   0  0  0  0  0  4           0  0  0
    1.7198    1.4090   -2.1080 C   0  0  0  0  0  4           0  0  0
   -2.8732   -0.1463    0.0447 C   0  0  2  0  0  4           0  0  0
   -0.6839   -0.0000    1.2946 C   0  0  0  0  0  4           0  0  0
   -0.6847   -0.6950   -1.0919 C   0  0  0  0  0  4           0  0  0
   -4.2303    1.8121   -0.6207 C   0  0  0  0  0  4           0  0  0
   -2.0889    0.5824    1.1441 C   0  0  0  0  0  4           0  0  0
   -2.0911   -0.1253   -1.2757 C   0  0  0  0  0  4           0  0  0
  1  9  1  0     0  0
  2 10  2  0     0  0
  3 11  1  0     0  0
  3 13  1  0     0  0
  3 26  1  0     0  0
  4 10  1  0     0  0
  4 12  1  0     0  0
  5 11  2  0     0  0
  5 14  1  0     0  0
  6 12  2  0     0  0
  6 15  1  0     0  0
  7 12  1  0     0  0
  7 27  1  0     0  0
  7 30  1  0     0  0
  8 11  1  0     0  0
  8 28  1  0     0  0
  8 29  1  0     0  0
  9 17  2  0     0  0
  9 18  1  0     0  0
 10 19  1  0     0  0
 13 14  2  0     0  0
 13 20  1  0     0  0
 14 21  1  0     0  0
 15 19  2  0     0  0
 16 22  2  0     0  0
 16 23  1  0     0  0
 16 26  1  0     0  0
 17 22  1  0     0  0
 18 23  2  0     0  0
 20 24  2  0     0  0
 21 25  2  0     0  0
 24 25  1  0     0  0
 27 31  1  0     0  0
 27 32  1  0     0  0
 28 31  1  0     0  0
 29 32  1  0     0  0
M  END
> <standard_type>
pIC50

> <# Confs.>
25

> <canonical_smiles>
CN(C1=NC=CC(N1)=O)C(CC2)CCN2C3=NC4=C(N3CC5=CC=C(F)C=C5)C=CC=C4

> <standard_relation>
=

> <Publication_ID>
nan

> <predicted_activity_value>
nan

> <actual_activity_value>
0.45593195564972433

> <Compound>
Mizolastine

> <standard_units>
uM

> hash
7367034220649954496

$$$$
32
XXILIB    08252103503D 0   0.00000     0.00000

 32 36  0     1  0            999 V2000
    0.5032    4.8502   -4.8175 F   0  0  0  0  0  1           0  0  0
   -8.7128   -0.1445   -1.3261 O   0  0  0  0  0  2           0  0  0
    2.1412    1.1484    0.0000 N   0  0  0  0  0  3           0  0  0
   -6.4971    0.1295   -0.7137 N   0  0  0  0  0  3           0  0  0
    2.1376   -1.0709    0.0211 N   0  0  0  0  0  3           0  0  0
   -5.4898   -1.2713    0.8836 N   0  0  0  0  0  3           0  0  0
   -4.2096    0.4362   -0.1253 N   0  0  1  0  0  3           0  0  0
    0.0000   -0.0000    0.0000 N   0  0  2  0  0  3           0  0  0
    0.7924    4.3006   -3.6297 C   0  0  0  0  0  4           0  0  0
   -7.7394   -0.4745   -0.6575 C   0  0  0  0  0  4           0  0  0
    1.3590    0.0000    0.0000 C   0  0  0  0  0  4           0  0  0
   -5.3925   -0.2688    0.0469 C   0  0  0  0  0  4           0  0  0
    3.4679    0.7631   -0.0688 C   0  0  0  0  0  4           0  0  0
    3.4298   -0.6243   -0.0457 C   0  0  0  0  0  4           0  0  0
   -6.7033   -1.8997    0.9844 C   0  0  0  0  0  4           0  0  0
    1.3941    3.1597   -1.1539 C   0  0  0  0  0  4           0  0  0
   -0.2113    3.6660   -2.9060 C   0  0  0  0  0  4           0  0  0
    2.0922    4.3720   -3.1402 C   0  0  0  0  0  4           0  0  0
   -7.8113   -1.5919    0.3030 C   0  0  0  0  0  4           0  0  0
    4.6695    1.4797   -0.1353 C   0  0  0  0  0  4           0  0  0
    4.6294   -1.3545   -0.0890 C   0  0  0  0  0  4           0  0  0
    0.0910    3.0948   -1.6701 C   0  0  0  0  0  4           0  0  0
    2.3926    3.8002   -1.9037 C   0  0  0  0  0  4           0  0  0
    5.8559    0.7404   -0.1834 C   0  0  0  0  0  4           0  0  0
    5.8381   -0.6540   -0.1602 C   0  0  0  0  0  4           0  0  0
    1.7198    2.5301    0.1662 C   0  0  0  0  0  4           0  0  0
   -2.8732   -0.1463    0.0447 C   0  0  2  0  0  4           0  0  0
   -0.6839   -0.0000    1.2946 C   0  0  0  0  0  4           0  0  0
   -0.6847   -0.6950   -1.0919 C   0  0  0  0  0  4           0  0  0
   -4.2303    1.8121   -0.6207 C   0  0  0  0  0  4           0  0  0
   -2.0889    0.5824    1.1441 C   0  0  0  0  0  4           0  0  0
   -2.0911   -0.1253   -1.2757 C   0  0  0  0  0  4           0  0  0
  1  9  1  0     0  0
  2 10  2  0     0  0
  3 11  1  0     0  0
  3 13  1  0     0  0
  3 26  1  0     0  0
  4 10  1  0     0  0
  4 12  1  0     0  0
  5 11  2  0     0  0
  5 14  1  0     0  0
  6 12  2  0     0  0
  6 15  1  0     0  0
  7 12  1  0     0  0
  7 27  1  0     0  0
  7 30  1  0     0  0
  8 11  1  0     0  0
  8 28  1  0     0  0
  8 29  1  0     0  0
  9 17  2  0     0  0
  9 18  1  0     0  0
 10 19  1  0     0  0
 13 14  2  0     0  0
 13 20  1  0     0  0
 14 21  1  0     0  0
 15 19  2  0     0  0
 16 22  2  0     0  0
 16 23  1  0     0  0
 16 26  1  0     0  0
 17 22  1  0     0  0
 18 23  2  0     0  0
 20 24  2  0     0  0
 21 25  2  0     0  0
 24 25  1  0     0  0
 27 31  1  0     0  0
 27 32  1  0     0  0
 28 31  1  0     0  0
 29 32  1  0     0  0
M  END
> <standard_type>
pIC50

> <# Confs.>
25

> <canonical_smiles>
CN(C1=NC=CC(N1)=O)C(CC2)CCN2C3=NC4=C(N3CC5=CC=C(F)C=C5)C=CC=C4

> <standard_relation>
=

> <Publication_ID>
nan

> <predicted_activity_value>
nan

> <actual_activity_value>
0.45593195564972433

> <Compound>
Mizolastine

> <standard_units>
uM

> hash
7367034220649954496

$$$$
32
XXILIB    08252103503D 0   0.00000     0.00000

 32 36  0     1  0            999 V2000
    1.7844    6.8470   -0.6507 F   0  0  0  0  0  1           0  0  0
   -7.3534    2.5476   -2.9031 O   0  0  0  0  0  2           0  0  0
    2.1412    0.5742   -0.9945 N   0  0  0  0  0  3           0  0  0
   -5.7860    1.5182   -1.5456 N   0  0  0  0  0  3           0  0  0
    2.1376   -0.5172    0.9380 N   0  0  0  0  0  3           0  0  0
   -3.6155    2.3907   -1.3083 N   0  0  0  0  0  3           0  0  0
   -4.2096    0.4362   -0.1253 N   0  0  1  0  0  3           0  0  0
    0.0000    0.0000    0.0000 N   0  0  2  0  0  3           0  0  0
    1.7678    5.5533   -1.0003 C   0  0  0  0  0  4           0  0  0
   -6.2260    2.4904   -2.4245 C   0  0  0  0  0  4           0  0  0
    1.3590   -0.0000    0.0000 C   0  0  0  0  0  4           0  0  0
   -4.4992    1.4756   -0.9980 C   0  0  0  0  0  4           0  0  0
    3.4679    0.3220   -0.6953 C   0  0  0  0  0  4           0  0  0
    3.4298   -0.3517    0.5179 C   0  0  0  0  0  4           0  0  0
   -3.9982    3.3732   -2.1834 C   0  0  0  0  0  4           0  0  0
    1.7314    2.8595   -1.7324 C   0  0  0  0  0  4           0  0  0
    2.9044    4.9804   -1.5605 C   0  0  0  0  0  4           0  0  0
    0.6145    4.8033   -0.7959 C   0  0  0  0  0  4           0  0  0
   -5.1993    3.4963   -2.7568 C   0  0  0  0  0  4           0  0  0
    4.6695    0.6227   -1.3492 C   0  0  0  0  0  4           0  0  0
    4.6294   -0.7543    1.1286 C   0  0  0  0  0  4           0  0  0
    2.8856    3.6341   -1.9240 C   0  0  0  0  0  4           0  0  0
    0.5976    3.4568   -1.1604 C   0  0  0  0  0  4           0  0  0
    5.8559    0.2113   -0.7330 C   0  0  0  0  0  4           0  0  0
    5.8381   -0.4658    0.4862 C   0  0  0  0  0  4           0  0  0
    1.7198    1.4090   -2.1080 C   0  0  0  0  0  4           0  0  0
   -2.8732   -0.1463    0.0447 C   0  0  2  0  0  4           0  0  0
   -0.6839    0.0000    1.2946 C   0  0  0  0  0  4           0  0  0
   -0.6847   -0.6950   -1.0919 C   0  0  0  0  0  4           0  0  0
   -5.2304   -0.0701    0.7916 C   0  0  0  0  0  4           0  0  0
   -2.0889    0.5824    1.1441 C   0  0  0  0  0  4           0  0  0
   -2.0911   -0.1253   -1.2757 C   0  0  0  0  0  4           0  0  0
  1  9  1  0     0  0
  2 10  2  0     0  0
  3 11  1  0     0  0
  3 13  1  0     0  0
  3 26  1  0     0  0
  4 10  1  0     0  0
  4 12  1  0     0  0
  5 11  2  0     0  0
  5 14  1  0     0  0
  6 12  2  0     0  0
  6 15  1  0     0  0
  7 12  1  0     0  0
  7 27  1  0     0  0
  7 30  1  0     0  0
  8 11  1  0     0  0
  8 28  1  0     0  0
  8 29  1  0     0  0
  9 17  2  0     0  0
  9 18  1  0     0  0
 10 19  1  0     0  0
 13 14  2  0     0  0
 13 20  1  0     0  0
 14 21  1  0     0  0
 15 19  2  0     0  0
 16 22  2  0     0  0
 16 23  1  0     0  0
 16 26  1  0     0  0
 17 22  1  0     0  0
 18 23  2  0     0  0
 20 24  2  0     0  0
 21 25  2  0     0  0
 24 25  1  0     0  0
 27 31  1  0     0  0
 27 32  1  0     0  0
 28 31  1  0     0  0
 29 32  1  0     0  0
M  END
> <standard_type>
pIC50

> <# Confs.>
25

> <canonical_smiles>
CN(C1=NC=CC(N1)=O)C(CC2)CCN2C3=NC4=C(N3CC5=CC=C(F)C=C5)C=CC=C4

> <standard_relation>
=

> <Publication_ID>
nan

> <predicted_activity_value>
nan

> <actual_activity_value>
0.45593195564972433

> <Compound>
Mizolastine

> <standard_units>
uM

> hash
7367034220649954496

$$$$
32
XXILIB    08252103503D 0   0.00000     0.00000

 32 36  0     1  0            999 V2000
   -1.9236    5.3740   -0.4633 F   0  0  0  0  0  1           0  0  0
   -6.4988   -3.0313    2.0641 O   0  0  0  0  0  2           0  0  0
    2.1412    0.5742   -0.9945 N   0  0  0  0  0  3           0  0  0
   -5.3872   -1.3223    0.9675 N   0  0  0  0  0  3           0  0  0
    2.1376   -0.5172    0.9380 N   0  0  0  0  0  3           0  0  0
   -6.4817    0.0265   -0.6171 N   0  0  0  0  0  3           0  0  0
   -4.2096    0.4362   -0.1253 N   0  0  1  0  0  3           0  0  0
    0.0000   -0.0000    0.0000 N   0  0  2  0  0  3           0  0  0
   -1.0577    4.4281   -0.8530 C   0  0  0  0  0  4           0  0  0
   -6.4850   -2.1130    1.2519 C   0  0  0  0  0  4           0  0  0
    1.3590   -0.0000   -0.0000 C   0  0  0  0  0  4           0  0  0
   -5.3925   -0.2688    0.0469 C   0  0  0  0  0  4           0  0  0
    3.4679    0.3220   -0.6953 C   0  0  0  0  0  4           0  0  0
    3.4298   -0.3517    0.5179 C   0  0  0  0  0  4           0  0  0
   -7.5971   -0.7330   -0.3790 C   0  0  0  0  0  4           0  0  0
    0.7441    2.4551   -1.6619 C   0  0  0  0  0  4           0  0  0
   -1.3178    3.6939   -2.0050 C   0  0  0  0  0  4           0  0  0
    0.0886    4.1967   -0.1000 C   0  0  0  0  0  4           0  0  0
   -7.6884   -1.7557    0.4770 C   0  0  0  0  0  4           0  0  0
    4.6695    0.6227   -1.3492 C   0  0  0  0  0  4           0  0  0
    4.6294   -0.7543    1.1286 C   0  0  0  0  0  4           0  0  0
   -0.4160    2.7098   -2.4091 C   0  0  0  0  0  4           0  0  0
    0.9894    3.2118   -0.5058 C   0  0  0  0  0  4           0  0  0
    5.8559    0.2113   -0.7330 C   0  0  0  0  0  4           0  0  0
    5.8381   -0.4658    0.4862 C   0  0  0  0  0  4           0  0  0
    1.7198    1.4090   -2.1080 C   0  0  0  0  0  4           0  0  0
   -2.8732   -0.1463    0.0447 C   0  0  2  0  0  4           0  0  0
   -0.6839   -0.0000    1.2946 C   0  0  0  0  0  4           0  0  0
   -0.6847   -0.6950   -1.0919 C   0  0  0  0  0  4           0  0  0
   -4.2303    1.8121   -0.6207 C   0  0  0  0  0  4           0  0  0
   -2.0889    0.5824    1.1441 C   0  0  0  0  0  4           0  0  0
   -2.0911   -0.1253   -1.2757 C   0  0  0  0  0  4           0  0  0
  1  9  1  0     0  0
  2 10  2  0     0  0
  3 11  1  0     0  0
  3 13  1  0     0  0
  3 26  1  0     0  0
  4 10  1  0     0  0
  4 12  1  0     0  0
  5 11  2  0     0  0
  5 14  1  0     0  0
  6 12  2  0     0  0
  6 15  1  0     0  0
  7 12  1  0     0  0
  7 27  1  0     0  0
  7 30  1  0     0  0
  8 11  1  0     0  0
  8 28  1  0     0  0
  8 29  1  0     0  0
  9 17  2  0     0  0
  9 18  1  0     0  0
 10 19  1  0     0  0
 13 14  2  0     0  0
 13 20  1  0     0  0
 14 21  1  0     0  0
 15 19  2  0     0  0
 16 22  2  0     0  0
 16 23  1  0     0  0
 16 26  1  0     0  0
 17 22  1  0     0  0
 18 23  2  0     0  0
 20 24  2  0     0  0
 21 25  2  0     0  0
 24 25  1  0     0  0
 27 31  1  0     0  0
 27 32  1  0     0  0
 28 31  1  0     0  0
 29 32  1  0     0  0
M  END
> <standard_type>
pIC50

> <# Confs.>
25

> <canonical_smiles>
CN(C1=NC=CC(N1)=O)C(CC2)CCN2C3=NC4=C(N3CC5=CC=C(F)C=C5)C=CC=C4

> <standard_relation>
=

> <Publication_ID>
nan

> <predicted_activity_value>
nan

> <actual_activity_value>
0.45593195564972433

> <Compound>
Mizolastine

> <standard_units>
uM

> hash
7367034220649954496

$$$$
32
XXILIB    08252103503D 0   0.00000     0.00000

 32 36  0     1  0            999 V2000
    0.5032    4.8502   -4.8175 F   0  0  0  0  0  1           0  0  0
   -6.4616   -3.6798   -0.3360 O   0  0  0  0  0  2           0  0  0
    2.1412    1.1484    0.0000 N   0  0  0  0  0  3           0  0  0
   -5.3728   -1.6395   -0.2328 N   0  0  0  0  0  3           0  0  0
    2.1376   -1.0709    0.0211 N   0  0  0  0  0  3           0  0  0
   -6.4942    0.3092    0.4553 N   0  0  0  0  0  3           0  0  0
   -4.2096    0.4362   -0.1253 N   0  0  1  0  0  3           0  0  0
    0.0000   -0.0000    0.0000 N   0  0  2  0  0  3           0  0  0
    0.7924    4.3006   -3.6297 C   0  0  0  0  0  4           0  0  0
   -6.4666   -2.4755   -0.1062 C   0  0  0  0  0  4           0  0  0
    1.3590    0.0000    0.0000 C   0  0  0  0  0  4           0  0  0
   -5.3925   -0.2688    0.0469 C   0  0  0  0  0  4           0  0  0
    3.4679    0.7631   -0.0688 C   0  0  0  0  0  4           0  0  0
    3.4298   -0.6243   -0.0457 C   0  0  0  0  0  4           0  0  0
   -7.6109   -0.4735    0.5891 C   0  0  0  0  0  4           0  0  0
    1.3941    3.1597   -1.1539 C   0  0  0  0  0  4           0  0  0
   -0.2113    3.6660   -2.9060 C   0  0  0  0  0  4           0  0  0
    2.0922    4.3720   -3.1402 C   0  0  0  0  0  4           0  0  0
   -7.6897   -1.7855    0.3460 C   0  0  0  0  0  4           0  0  0
    4.6695    1.4797   -0.1353 C   0  0  0  0  0  4           0  0  0
    4.6294   -1.3545   -0.0890 C   0  0  0  0  0  4           0  0  0
    0.0910    3.0948   -1.6701 C   0  0  0  0  0  4           0  0  0
    2.3926    3.8002   -1.9037 C   0  0  0  0  0  4           0  0  0
    5.8559    0.7404   -0.1834 C   0  0  0  0  0  4           0  0  0
    5.8381   -0.6540   -0.1602 C   0  0  0  0  0  4           0  0  0
    1.7198    2.5301    0.1662 C   0  0  0  0  0  4           0  0  0
   -2.8732   -0.1463    0.0447 C   0  0  2  0  0  4           0  0  0
   -0.6839   -0.0000    1.2946 C   0  0  0  0  0  4           0  0  0
   -0.6847   -0.6950   -1.0919 C   0  0  0  0  0  4           0  0  0
   -4.2303    1.8121   -0.6207 C   0  0  0  0  0  4           0  0  0
   -2.0889    0.5824    1.1441 C   0  0  0  0  0  4           0  0  0
   -2.0911   -0.1253   -1.2757 C   0  0  0  0  0  4           0  0  0
  1  9  1  0     0  0
  2 10  2  0     0  0
  3 11  1  0     0  0
  3 13  1  0     0  0
  3 26  1  0     0  0
  4 10  1  0     0  0
  4 12  1  0     0  0
  5 11  2  0     0  0
  5 14  1  0     0  0
  6 12  2  0     0  0
  6 15  1  0     0  0
  7 12  1  0     0  0
  7 27  1  0     0  0
  7 30  1  0     0  0
  8 11  1  0     0  0
  8 28  1  0     0  0
  8 29  1  0     0  0
  9 17  2  0     0  0
  9 18  1  0     0  0
 10 19  1  0     0  0
 13 14  2  0     0  0
 13 20  1  0     0  0
 14 21  1  0     0  0
 15 19  2  0     0  0
 16 22  2  0     0  0
 16 23  1  0     0  0
 16 26  1  0     0  0
 17 22  1  0     0  0
 18 23  2  0     0  0
 20 24  2  0     0  0
 21 25  2  0     0  0
 24 25  1  0     0  0
 27 31  1  0     0  0
 27 32  1  0     0  0
 28 31  1  0     0  0
 29 32  1  0     0  0
M  END
> <standard_type>
pIC50

> <# Confs.>
25

> <canonical_smiles>
CN(C1=NC=CC(N1)=O)C(CC2)CCN2C3=NC4=C(N3CC5=CC=C(F)C=C5)C=CC=C4

> <standard_relation>
=

> <Publication_ID>
nan

> <predicted_activity_value>
nan

> <actual_activity_value>
0.45593195564972433

> <Compound>
Mizolastine

> <standard_units>
uM

> hash
7367034220649954496

$$$$
32
XXILIB    08252103503D 0   0.00000     0.00000

 32 36  0     1  0            999 V2000
    1.7844    6.8470   -0.6507 F   0  0  0  0  0  1           0  0  0
   -8.7499    0.5040    1.0740 O   0  0  0  0  0  2           0  0  0
    2.1412    0.5742   -0.9945 N   0  0  0  0  0  3           0  0  0
   -6.5115    0.4467    0.4865 N   0  0  0  0  0  3           0  0  0
    2.1376   -0.5172    0.9380 N   0  0  0  0  0  3           0  0  0
   -5.4774   -1.5540   -0.1888 N   0  0  0  0  0  3           0  0  0
   -4.2096    0.4362   -0.1253 N   0  0  1  0  0  3           0  0  0
    0.0000   -0.0000    0.0000 N   0  0  2  0  0  3           0  0  0
    1.7678    5.5533   -1.0003 C   0  0  0  0  0  4           0  0  0
   -7.7578   -0.1120    0.7005 C   0  0  0  0  0  4           0  0  0
    1.3590   -0.0000    0.0000 C   0  0  0  0  0  4           0  0  0
   -5.3925   -0.2688    0.0469 C   0  0  0  0  0  4           0  0  0
    3.4679    0.3220   -0.6953 C   0  0  0  0  0  4           0  0  0
    3.4298   -0.3517    0.5179 C   0  0  0  0  0  4           0  0  0
   -6.6895   -2.1592    0.0163 C   0  0  0  0  0  4           0  0  0
    1.7314    2.8595   -1.7324 C   0  0  0  0  0  4           0  0  0
    2.9044    4.9804   -1.5605 C   0  0  0  0  0  4           0  0  0
    0.6145    4.8033   -0.7959 C   0  0  0  0  0  4           0  0  0
   -7.8101   -1.5620    0.4340 C   0  0  0  0  0  4           0  0  0
    4.6695    0.6227   -1.3492 C   0  0  0  0  0  4           0  0  0
    4.6294   -0.7543    1.1286 C   0  0  0  0  0  4           0  0  0
    2.8856    3.6341   -1.9240 C   0  0  0  0  0  4           0  0  0
    0.5976    3.4568   -1.1604 C   0  0  0  0  0  4           0  0  0
    5.8559    0.2113   -0.7330 C   0  0  0  0  0  4           0  0  0
    5.8381   -0.4658    0.4862 C   0  0  0  0  0  4           0  0  0
    1.7198    1.4090   -2.1080 C   0  0  0  0  0  4           0  0  0
   -2.8732   -0.1463    0.0447 C   0  0  2  0  0  4           0  0  0
   -0.6839   -0.0000    1.2946 C   0  0  0  0  0  4           0  0  0
   -0.6847   -0.6950   -1.0919 C   0  0  0  0  0  4           0  0  0
   -4.2303    1.8121   -0.6207 C   0  0  0  0  0  4           0  0  0
   -2.0889    0.5824    1.1441 C   0  0  0  0  0  4           0  0  0
   -2.0911   -0.1253   -1.2757 C   0  0  0  0  0  4           0  0  0
  1  9  1  0     0  0
  2 10  2  0     0  0
  3 11  1  0     0  0
  3 13  1  0     0  0
  3 26  1  0     0  0
  4 10  1  0     0  0
  4 12  1  0     0  0
  5 11  2  0     0  0
  5 14  1  0     0  0
  6 12  2  0     0  0
  6 15  1  0     0  0
  7 12  1  0     0  0
  7 27  1  0     0  0
  7 30  1  0     0  0
  8 11  1  0     0  0
  8 28  1  0     0  0
  8 29  1  0     0  0
  9 17  2  0     0  0
  9 18  1  0     0  0
 10 19  1  0     0  0
 13 14  2  0     0  0
 13 20  1  0     0  0
 14 21  1  0     0  0
 15 19  2  0     0  0
 16 22  2  0     0  0
 16 23  1  0     0  0
 16 26  1  0     0  0
 17 22  1  0     0  0
 18 23  2  0     0  0
 20 24  2  0     0  0
 21 25  2  0     0  0
 24 25  1  0     0  0
 27 31  1  0     0  0
 27 32  1  0     0  0
 28 31  1  0     0  0
 29 32  1  0     0  0
M  END
> <standard_type>
pIC50

> <# Confs.>
25

> <canonical_smiles>
CN(C1=NC=CC(N1)=O)C(CC2)CCN2C3=NC4=C(N3CC5=CC=C(F)C=C5)C=CC=C4

> <standard_relation>
=

> <Publication_ID>
nan

> <predicted_activity_value>
nan

> <actual_activity_value>
0.45593195564972433

> <Compound>
Mizolastine

> <standard_units>
uM

> hash
7367034220649954496

$$$$
32
XXILIB    08252103503D 0   0.00000     0.00000

 32 36  0     1  0            999 V2000
    1.7844    6.8470   -0.6507 F   0  0  0  0  0  1           0  0  0
   -6.4616   -3.6798   -0.3360 O   0  0  0  0  0  2           0  0  0
    2.1412    0.5742   -0.9945 N   0  0  0  0  0  3           0  0  0
   -5.3728   -1.6395   -0.2328 N   0  0  0  0  0  3           0  0  0
    2.1376   -0.5172    0.9380 N   0  0  0  0  0  3           0  0  0
   -6.4942    0.3092    0.4553 N   0  0  0  0  0  3           0  0  0
   -4.2096    0.4362   -0.1253 N   0  0  1  0  0  3           0  0  0
    0.0000   -0.0000    0.0000 N   0  0  2  0  0  3           0  0  0
    1.7678    5.5533   -1.0003 C   0  0  0  0  0  4           0  0  0
   -6.4666   -2.4755   -0.1062 C   0  0  0  0  0  4           0  0  0
    1.3590   -0.0000    0.0000 C   0  0  0  0  0  4           0  0  0
   -5.3925   -0.2688    0.0469 C   0  0  0  0  0  4           0  0  0
    3.4679    0.3220   -0.6953 C   0  0  0  0  0  4           0  0  0
    3.4298   -0.3517    0.5179 C   0  0  0  0  0  4           0  0  0
   -7.6109   -0.4735    0.5891 C   0  0  0  0  0  4           0  0  0
    1.7314    2.8595   -1.7324 C   0  0  0  0  0  4           0  0  0
    2.9044    4.9804   -1.5605 C   0  0  0  0  0  4           0  0  0
    0.6145    4.8033   -0.7959 C   0  0  0  0  0  4           0  0  0
   -7.6897   -1.7855    0.3460 C   0  0  0  0  0  4           0  0  0
    4.6695    0.6227   -1.3492 C   0  0  0  0  0  4           0  0  0
    4.6294   -0.7543    1.1286 C   0  0  0  0  0  4           0  0  0
    2.8856    3.6341   -1.9240 C   0  0  0  0  0  4           0  0  0
    0.5976    3.4568   -1.1604 C   0  0  0  0  0  4           0  0  0
    5.8559    0.2113   -0.7330 C   0  0  0  0  0  4           0  0  0
    5.8381   -0.4658    0.4862 C   0  0  0  0  0  4           0  0  0
    1.7198    1.4090   -2.1080 C   0  0  0  0  0  4           0  0  0
   -2.8732   -0.1463    0.0447 C   0  0  2  0  0  4           0  0  0
   -0.6839   -0.0000    1.2946 C   0  0  0  0  0  4           0  0  0
   -0.6847   -0.6950   -1.0919 C   0  0  0  0  0  4           0  0  0
   -4.2303    1.8121   -0.6207 C   0  0  0  0  0  4           0  0  0
   -2.0889    0.5824    1.1441 C   0  0  0  0  0  4           0  0  0
   -2.0911   -0.1253   -1.2757 C   0  0  0  0  0  4           0  0  0
  1  9  1  0     0  0
  2 10  2  0     0  0
  3 11  1  0     0  0
  3 13  1  0     0  0
  3 26  1  0     0  0
  4 10  1  0     0  0
  4 12  1  0     0  0
  5 11  2  0     0  0
  5 14  1  0     0  0
  6 12  2  0     0  0
  6 15  1  0     0  0
  7 12  1  0     0  0
  7 27  1  0     0  0
  7 30  1  0     0  0
  8 11  1  0     0  0
  8 28  1  0     0  0
  8 29  1  0     0  0
  9 17  2  0     0  0
  9 18  1  0     0  0
 10 19  1  0     0  0
 13 14  2  0     0  0
 13 20  1  0     0  0
 14 21  1  0     0  0
 15 19  2  0     0  0
 16 22  2  0     0  0
 16 23  1  0     0  0
 16 26  1  0     0  0
 17 22  1  0     0  0
 18 23  2  0     0  0
 20 24  2  0     0  0
 21 25  2  0     0  0
 24 25  1  0     0  0
 27 31  1  0     0  0
 27 32  1  0     0  0
 28 31  1  0     0  0
 29 32  1  0     0  0
M  END
> <standard_type>
pIC50

> <# Confs.>
25

> <canonical_smiles>
CN(C1=NC=CC(N1)=O)C(CC2)CCN2C3=NC4=C(N3CC5=CC=C(F)C=C5)C=CC=C4

> <standard_relation>
=

> <Publication_ID>
nan

> <predicted_activity_value>
nan

> <actual_activity_value>
0.45593195564972433

> <Compound>
Mizolastine

> <standard_units>
uM

> hash
7367034220649954496

$$$$
32
XXILIB    08252103503D 0   0.00000     0.00000

 32 36  0     1  0            999 V2000
    0.5268   -1.6735   -6.6659 F   0  0  0  0  0  1           0  0  0
   -7.0067    4.1991    0.1471 O   0  0  0  0  0  2           0  0  0
    2.1412    0.5742   -0.9945 N   0  0  0  0  0  3           0  0  0
   -5.6174    2.3538   -0.0068 N   0  0  0  0  0  3           0  0  0
    2.1376   -0.5172    0.9380 N   0  0  0  0  0  3           0  0  0
   -3.6053    2.4384   -1.2201 N   0  0  0  0  0  3           0  0  0
   -4.2096    0.4362   -0.1253 N   0  0  1  0  0  3           0  0  0
    0.0000    0.0000    0.0000 N   0  0  2  0  0  3           0  0  0
    0.8090   -0.9416   -5.5792 C   0  0  0  0  0  4           0  0  0
   -5.9866    3.6602   -0.2679 C   0  0  0  0  0  4           0  0  0
    1.3590    0.0000   -0.0000 C   0  0  0  0  0  4           0  0  0
   -4.4422    1.7582   -0.4774 C   0  0  0  0  0  4           0  0  0
    3.4679    0.3220   -0.6953 C   0  0  0  0  0  4           0  0  0
    3.4298   -0.3517    0.5179 C   0  0  0  0  0  4           0  0  0
   -3.9284    3.7366   -1.5163 C   0  0  0  0  0  4           0  0  0
    1.3941    0.5806   -3.3134 C   0  0  0  0  0  4           0  0  0
    1.9536   -1.2238   -4.8415 C   0  0  0  0  0  4           0  0  0
   -0.0464    0.0900   -5.2072 C   0  0  0  0  0  4           0  0  0
   -5.0238    4.3892   -1.1151 C   0  0  0  0  0  4           0  0  0
    4.6695    0.6227   -1.3492 C   0  0  0  0  0  4           0  0  0
    4.6294   -0.7543    1.1286 C   0  0  0  0  0  4           0  0  0
    2.2458   -0.4614   -3.7108 C   0  0  0  0  0  4           0  0  0
    0.2475    0.8514   -4.0758 C   0  0  0  0  0  4           0  0  0
    5.8559    0.2113   -0.7330 C   0  0  0  0  0  4           0  0  0
    5.8381   -0.4658    0.4862 C   0  0  0  0  0  4           0  0  0
    1.7198    1.4090   -2.1080 C   0  0  0  0  0  4           0  0  0
   -2.8732   -0.1463    0.0447 C   0  0  2  0  0  4           0  0  0
   -0.6839   -0.0000    1.2946 C   0  0  0  0  0  4           0  0  0
   -0.6847   -0.6950   -1.0919 C   0  0  0  0  0  4           0  0  0
   -5.3222   -0.4457    0.2260 C   0  0  0  0  0  4           0  0  0
   -2.0889    0.5824    1.1441 C   0  0  0  0  0  4           0  0  0
   -2.0911   -0.1253   -1.2757 C   0  0  0  0  0  4           0  0  0
  1  9  1  0     0  0
  2 10  2  0     0  0
  3 11  1  0     0  0
  3 13  1  0     0  0
  3 26  1  0     0  0
  4 10  1  0     0  0
  4 12  1  0     0  0
  5 11  2  0     0  0
  5 14  1  0     0  0
  6 12  2  0     0  0
  6 15  1  0     0  0
  7 12  1  0     0  0
  7 27  1  0     0  0
  7 30  1  0     0  0
  8 11  1  0     0  0
  8 28  1  0     0  0
  8 29  1  0     0  0
  9 17  2  0     0  0
  9 18  1  0     0  0
 10 19  1  0     0  0
 13 14  2  0     0  0
 13 20  1  0     0  0
 14 21  1  0     0  0
 15 19  2  0     0  0
 16 22  2  0     0  0
 16 23  1  0     0  0
 16 26  1  0     0  0
 17 22  1  0     0  0
 18 23  2  0     0  0
 20 24  2  0     0  0
 21 25  2  0     0  0
 24 25  1  0     0  0
 27 31  1  0     0  0
 27 32  1  0     0  0
 28 31  1  0     0  0
 29 32  1  0     0  0
M  END
> <standard_type>
pIC50

> <# Confs.>
25

> <canonical_smiles>
CN(C1=NC=CC(N1)=O)C(CC2)CCN2C3=NC4=C(N3CC5=CC=C(F)C=C5)C=CC=C4

> <standard_relation>
=

> <Publication_ID>
nan

> <predicted_activity_value>
nan

> <actual_activity_value>
0.45593195564972433

> <Compound>
Mizolastine

> <standard_units>
uM

> hash
7367034220649954496

$$$$
32
XXILIB    08252103503D 0   0.00000     0.00000

 32 36  0     1  0            999 V2000
    4.1617   -0.1758   -6.9273 F   0  0  0  0  0  1           0  0  0
   -7.2442    3.8725    0.8948 O   0  0  0  0  0  2           0  0  0
    2.1412    0.5742   -0.9945 N   0  0  0  0  0  3           0  0  0
   -5.7360    2.1940    0.3780 N   0  0  0  0  0  3           0  0  0
    2.1376   -0.5172    0.9380 N   0  0  0  0  0  3           0  0  0
   -3.5928    2.6914   -0.4511 N   0  0  0  0  0  3           0  0  0
   -4.2096    0.4362   -0.1253 N   0  0  1  0  0  3           0  0  0
    0.0000    0.0000    0.0000 N   0  0  2  0  0  3           0  0  0
    3.5830    0.2010   -5.7786 C   0  0  0  0  0  4           0  0  0
   -6.1478    3.5095    0.4831 C   0  0  0  0  0  4           0  0  0
    1.3590    0.0000    0.0000 C   0  0  0  0  0  4           0  0  0
   -4.4754    1.7976   -0.0815 C   0  0  0  0  0  4           0  0  0
    3.4679    0.3220   -0.6953 C   0  0  0  0  0  4           0  0  0
    3.4298   -0.3517    0.5179 C   0  0  0  0  0  4           0  0  0
   -3.9540    4.0110   -0.3749 C   0  0  0  0  0  4           0  0  0
    2.3814    0.9850   -3.3838 C   0  0  0  0  0  4           0  0  0
    3.5325    1.5507   -5.4475 C   0  0  0  0  0  4           0  0  0
    3.0406   -0.7637   -4.9362 C   0  0  0  0  0  4           0  0  0
   -5.1300    4.4849    0.0482 C   0  0  0  0  0  4           0  0  0
    4.6695    0.6227   -1.3492 C   0  0  0  0  0  4           0  0  0
    4.6294   -0.7543    1.1286 C   0  0  0  0  0  4           0  0  0
    2.9302    1.9412   -4.2517 C   0  0  0  0  0  4           0  0  0
    2.4387   -0.3710   -3.7405 C   0  0  0  0  0  4           0  0  0
    5.8559    0.2113   -0.7330 C   0  0  0  0  0  4           0  0  0
    5.8381   -0.4658    0.4862 C   0  0  0  0  0  4           0  0  0
    1.7198    1.4090   -2.1080 C   0  0  0  0  0  4           0  0  0
   -2.8732   -0.1463    0.0447 C   0  0  2  0  0  4           0  0  0
   -0.6839    0.0000    1.2946 C   0  0  0  0  0  4           0  0  0
   -0.6847   -0.6950   -1.0919 C   0  0  0  0  0  4           0  0  0
   -5.3020   -0.5310   -0.2252 C   0  0  0  0  0  4           0  0  0
   -2.0889    0.5824    1.1441 C   0  0  0  0  0  4           0  0  0
   -2.0911   -0.1253   -1.2757 C   0  0  0  0  0  4           0  0  0
  1  9  1  0     0  0
  2 10  2  0     0  0
  3 11  1  0     0  0
  3 13  1  0     0  0
  3 26  1  0     0  0
  4 10  1  0     0  0
  4 12  1  0     0  0
  5 11  2  0     0  0
  5 14  1  0     0  0
  6 12  2  0     0  0
  6 15  1  0     0  0
  7 12  1  0     0  0
  7 27  1  0     0  0
  7 30  1  0     0  0
  8 11  1  0     0  0
  8 28  1  0     0  0
  8 29  1  0     0  0
  9 17  2  0     0  0
  9 18  1  0     0  0
 10 19  1  0     0  0
 13 14  2  0     0  0
 13 20  1  0     0  0
 14 21  1  0     0  0
 15 19  2  0     0  0
 16 22  2  0     0  0
 16 23  1  0     0  0
 16 26  1  0     0  0
 17 22  1  0     0  0
 18 23  2  0     0  0
 20 24  2  0     0  0
 21 25  2  0     0  0
 24 25  1  0     0  0
 27 31  1  0     0  0
 27 32  1  0     0  0
 28 31  1  0     0  0
 29 32  1  0     0  0
M  END
> <standard_type>
pIC50

> <# Confs.>
25

> <canonical_smiles>
CN(C1=NC=CC(N1)=O)C(CC2)CCN2C3=NC4=C(N3CC5=CC=C(F)C=C5)C=CC=C4

> <standard_relation>
=

> <Publication_ID>
nan

> <predicted_activity_value>
nan

> <actual_activity_value>
0.45593195564972433

> <Compound>
Mizolastine

> <standard_units>
uM

> hash
7367034220649954496

$$$$
32
XXILIB    08252103503D 0   0.00000     0.00000

 32 36  0     1  0            999 V2000
   -1.9236    5.3740   -0.4633 F   0  0  0  0  0  1           0  0  0
   -8.7128   -0.1445   -1.3261 O   0  0  0  0  0  2           0  0  0
    2.1412    0.5742   -0.9945 N   0  0  0  0  0  3           0  0  0
   -6.4971    0.1295   -0.7137 N   0  0  0  0  0  3           0  0  0
    2.1376   -0.5172    0.9380 N   0  0  0  0  0  3           0  0  0
   -5.4898   -1.2713    0.8836 N   0  0  0  0  0  3           0  0  0
   -4.2096    0.4362   -0.1253 N   0  0  1  0  0  3           0  0  0
    0.0000   -0.0000    0.0000 N   0  0  2  0  0  3           0  0  0
   -1.0577    4.4281   -0.8530 C   0  0  0  0  0  4           0  0  0
   -7.7394   -0.4745   -0.6575 C   0  0  0  0  0  4           0  0  0
    1.3590   -0.0000   -0.0000 C   0  0  0  0  0  4           0  0  0
   -5.3925   -0.2688    0.0469 C   0  0  0  0  0  4           0  0  0
    3.4679    0.3220   -0.6953 C   0  0  0  0  0  4           0  0  0
    3.4298   -0.3517    0.5179 C   0  0  0  0  0  4           0  0  0
   -6.7033   -1.8997    0.9844 C   0  0  0  0  0  4           0  0  0
    0.7441    2.4551   -1.6619 C   0  0  0  0  0  4           0  0  0
   -1.3178    3.6939   -2.0050 C   0  0  0  0  0  4           0  0  0
    0.0886    4.1967   -0.1000 C   0  0  0  0  0  4           0  0  0
   -7.8113   -1.5919    0.3030 C   0  0  0  0  0  4           0  0  0
    4.6695    0.6227   -1.3492 C   0  0  0  0  0  4           0  0  0
    4.6294   -0.7543    1.1286 C   0  0  0  0  0  4           0  0  0
   -0.4160    2.7098   -2.4091 C   0  0  0  0  0  4           0  0  0
    0.9894    3.2118   -0.5058 C   0  0  0  0  0  4           0  0  0
    5.8559    0.2113   -0.7330 C   0  0  0  0  0  4           0  0  0
    5.8381   -0.4658    0.4862 C   0  0  0  0  0  4           0  0  0
    1.7198    1.4090   -2.1080 C   0  0  0  0  0  4           0  0  0
   -2.8732   -0.1463    0.0447 C   0  0  2  0  0  4           0  0  0
   -0.6839   -0.0000    1.2946 C   0  0  0  0  0  4           0  0  0
   -0.6847   -0.6950   -1.0919 C   0  0  0  0  0  4           0  0  0
   -4.2303    1.8121   -0.6207 C   0  0  0  0  0  4           0  0  0
   -2.0889    0.5824    1.1441 C   0  0  0  0  0  4           0  0  0
   -2.0911   -0.1253   -1.2757 C   0  0  0  0  0  4           0  0  0
  1  9  1  0     0  0
  2 10  2  0     0  0
  3 11  1  0     0  0
  3 13  1  0     0  0
  3 26  1  0     0  0
  4 10  1  0     0  0
  4 12  1  0     0  0
  5 11  2  0     0  0
  5 14  1  0     0  0
  6 12  2  0     0  0
  6 15  1  0     0  0
  7 12  1  0     0  0
  7 27  1  0     0  0
  7 30  1  0     0  0
  8 11  1  0     0  0
  8 28  1  0     0  0
  8 29  1  0     0  0
  9 17  2  0     0  0
  9 18  1  0     0  0
 10 19  1  0     0  0
 13 14  2  0     0  0
 13 20  1  0     0  0
 14 21  1  0     0  0
 15 19  2  0     0  0
 16 22  2  0     0  0
 16 23  1  0     0  0
 16 26  1  0     0  0
 17 22  1  0     0  0
 18 23  2  0     0  0
 20 24  2  0     0  0
 21 25  2  0     0  0
 24 25  1  0     0  0
 27 31  1  0     0  0
 27 32  1  0     0  0
 28 31  1  0     0  0
 29 32  1  0     0  0
M  END
> <standard_type>
pIC50

> <# Confs.>
25

> <canonical_smiles>
CN(C1=NC=CC(N1)=O)C(CC2)CCN2C3=NC4=C(N3CC5=CC=C(F)C=C5)C=CC=C4

> <standard_relation>
=

> <Publication_ID>
nan

> <predicted_activity_value>
nan

> <actual_activity_value>
0.45593195564972433

> <Compound>
Mizolastine

> <standard_units>
uM

> hash
7367034220649954496

$$$$
32
XXILIB    08252103503D 0   0.00000     0.00000

 32 36  0     1  0            999 V2000
    1.7844   -6.2550   -2.8600 F   0  0  0  0  0  1           0  0  0
   -7.2255    4.7887   -1.5080 O   0  0  0  0  0  2           0  0  0
    2.1412   -0.9945    0.5742 N   0  0  0  0  0  3           0  0  0
   -5.3253    3.6789   -0.7893 N   0  0  0  0  0  3           0  0  0
    2.1376    0.9169   -0.5538 N   0  0  0  0  0  3           0  0  0
   -5.4656    1.6098    0.3186 N   0  0  0  0  0  3           0  0  0
   -3.3435    2.5633   -0.0814 N   0  0  1  0  0  3           0  0  0
    0.0000    0.0000   -0.0000 N   0  0  2  0  0  3           0  0  0
    1.7678   -5.3094   -1.9103 C   0  0  0  0  0  4           0  0  0
   -6.6890    3.8367   -0.9520 C   0  0  0  0  0  4           0  0  0
    1.3590    0.0000   -0.0000 C   0  0  0  0  0  4           0  0  0
   -4.7287    2.5787   -0.1638 C   0  0  0  0  0  4           0  0  0
    3.4679   -0.6265    0.4411 C   0  0  0  0  0  4           0  0  0
    3.4298    0.5635   -0.2726 C   0  0  0  0  0  4           0  0  0
   -6.8253    1.7213    0.1914 C   0  0  0  0  0  4           0  0  0
    1.7314   -3.3426    0.0705 C   0  0  0  0  0  4           0  0  0
    2.9044   -5.0934   -1.1388 C   0  0  0  0  0  4           0  0  0
    0.6145   -4.5577   -1.7123 C   0  0  0  0  0  4           0  0  0
   -7.4845    2.7302   -0.3869 C   0  0  0  0  0  4           0  0  0
    4.6695   -1.2138    0.8571 C   0  0  0  0  0  4           0  0  0
    4.6294    1.2175   -0.6002 C   0  0  0  0  0  4           0  0  0
    2.8856   -4.1092   -0.1508 C   0  0  0  0  0  4           0  0  0
    0.5976   -3.5738   -0.7235 C   0  0  0  0  0  4           0  0  0
    5.8559   -0.5495    0.5291 C   0  0  0  0  0  4           0  0  0
    5.8381    0.6465   -0.1882 C   0  0  0  0  0  4           0  0  0
    1.7198   -2.2743    1.1211 C   0  0  0  0  0  4           0  0  0
   -2.5343    1.3389   -0.0690 C   0  0  2  0  0  4           0  0  0
   -0.8112   -0.0000    1.2151 C   0  0  0  0  0  4           0  0  0
   -0.7359    0.0229   -1.2619 C   0  0  0  0  0  4           0  0  0
   -2.5828    3.8116   -0.1265 C   0  0  0  0  0  4           0  0  0
   -1.7084    1.2401    1.2242 C   0  0  0  0  0  4           0  0  0
   -1.6262    1.2655   -1.3071 C   0  0  0  0  0  4           0  0  0
  1  9  1  0     0  0
  2 10  2  0     0  0
  3 11  1  0     0  0
  3 13  1  0     0  0
  3 26  1  0     0  0
  4 10  1  0     0  0
  4 12  1  0     0  0
  5 11  2  0     0  0
  5 14  1  0     0  0
  6 12  2  0     0  0
  6 15  1  0     0  0
  7 12  1  0     0  0
  7 27  1  0     0  0
  7 30  1  0     0  0
  8 11  1  0     0  0
  8 28  1  0     0  0
  8 29  1  0     0  0
  9 17  2  0     0  0
  9 18  1  0     0  0
 10 19  1  0     0  0
 13 14  2  0     0  0
 13 20  1  0     0  0
 14 21  1  0     0  0
 15 19  2  0     0  0
 16 22  2  0     0  0
 16 23  1  0     0  0
 16 26  1  0     0  0
 17 22  1  0     0  0
 18 23  2  0     0  0
 20 24  2  0     0  0
 21 25  2  0     0  0
 24 25  1  0     0  0
 27 31  1  0     0  0
 27 32  1  0     0  0
 28 31  1  0     0  0
 29 32  1  0     0  0
M  END
> <standard_type>
pIC50

> <# Confs.>
25

> <canonical_smiles>
CN(C1=NC=CC(N1)=O)C(CC2)CCN2C3=NC4=C(N3CC5=CC=C(F)C=C5)C=CC=C4

> <standard_relation>
=

> <Publication_ID>
nan

> <predicted_activity_value>
nan

> <actual_activity_value>
0.45593195564972433

> <Compound>
Mizolastine

> <standard_units>
uM

> hash
7367034220649954496

$$$$
32
XXILIB    08252103503D 0   0.00000     0.00000

 32 36  0     1  0            999 V2000
    0.5032    4.8502   -4.8175 F   0  0  0  0  0  1           0  0  0
   -8.7499    0.5040    1.0740 O   0  0  0  0  0  2           0  0  0
    2.1412    1.1484    0.0000 N   0  0  0  0  0  3           0  0  0
   -6.5115    0.4467    0.4865 N   0  0  0  0  0  3           0  0  0
    2.1376   -1.0709    0.0211 N   0  0  0  0  0  3           0  0  0
   -5.4774   -1.5540   -0.1888 N   0  0  0  0  0  3           0  0  0
   -4.2096    0.4362   -0.1253 N   0  0  1  0  0  3           0  0  0
    0.0000   -0.0000    0.0000 N   0  0  2  0  0  3           0  0  0
    0.7924    4.3006   -3.6297 C   0  0  0  0  0  4           0  0  0
   -7.7578   -0.1120    0.7005 C   0  0  0  0  0  4           0  0  0
    1.3590    0.0000    0.0000 C   0  0  0  0  0  4           0  0  0
   -5.3925   -0.2688    0.0469 C   0  0  0  0  0  4           0  0  0
    3.4679    0.7631   -0.0688 C   0  0  0  0  0  4           0  0  0
    3.4298   -0.6243   -0.0457 C   0  0  0  0  0  4           0  0  0
   -6.6895   -2.1592    0.0163 C   0  0  0  0  0  4           0  0  0
    1.3941    3.1597   -1.1539 C   0  0  0  0  0  4           0  0  0
   -0.2113    3.6660   -2.9060 C   0  0  0  0  0  4           0  0  0
    2.0922    4.3720   -3.1402 C   0  0  0  0  0  4           0  0  0
   -7.8101   -1.5620    0.4340 C   0  0  0  0  0  4           0  0  0
    4.6695    1.4797   -0.1353 C   0  0  0  0  0  4           0  0  0
    4.6294   -1.3545   -0.0890 C   0  0  0  0  0  4           0  0  0
    0.0910    3.0948   -1.6701 C   0  0  0  0  0  4           0  0  0
    2.3926    3.8002   -1.9037 C   0  0  0  0  0  4           0  0  0
    5.8559    0.7404   -0.1834 C   0  0  0  0  0  4           0  0  0
    5.8381   -0.6540   -0.1602 C   0  0  0  0  0  4           0  0  0
    1.7198    2.5301    0.1662 C   0  0  0  0  0  4           0  0  0
   -2.8732   -0.1463    0.0447 C   0  0  2  0  0  4           0  0  0
   -0.6839   -0.0000    1.2946 C   0  0  0  0  0  4           0  0  0
   -0.6847   -0.6950   -1.0919 C   0  0  0  0  0  4           0  0  0
   -4.2303    1.8121   -0.6207 C   0  0  0  0  0  4           0  0  0
   -2.0889    0.5824    1.1441 C   0  0  0  0  0  4           0  0  0
   -2.0911   -0.1253   -1.2757 C   0  0  0  0  0  4           0  0  0
  1  9  1  0     0  0
  2 10  2  0     0  0
  3 11  1  0     0  0
  3 13  1  0     0  0
  3 26  1  0     0  0
  4 10  1  0     0  0
  4 12  1  0     0  0
  5 11  2  0     0  0
  5 14  1  0     0  0
  6 12  2  0     0  0
  6 15  1  0     0  0
  7 12  1  0     0  0
  7 27  1  0     0  0
  7 30  1  0     0  0
  8 11  1  0     0  0
  8 28  1  0     0  0
  8 29  1  0     0  0
  9 17  2  0     0  0
  9 18  1  0     0  0
 10 19  1  0     0  0
 13 14  2  0     0  0
 13 20  1  0     0  0
 14 21  1  0     0  0
 15 19  2  0     0  0
 16 22  2  0     0  0
 16 23  1  0     0  0
 16 26  1  0     0  0
 17 22  1  0     0  0
 18 23  2  0     0  0
 20 24  2  0     0  0
 21 25  2  0     0  0
 24 25  1  0     0  0
 27 31  1  0     0  0
 27 32  1  0     0  0
 28 31  1  0     0  0
 29 32  1  0     0  0
M  END
> <standard_type>
pIC50

> <# Confs.>
25

> <canonical_smiles>
CN(C1=NC=CC(N1)=O)C(CC2)CCN2C3=NC4=C(N3CC5=CC=C(F)C=C5)C=CC=C4

> <standard_relation>
=

> <Publication_ID>
nan

> <predicted_activity_value>
nan

> <actual_activity_value>
0.45593195564972433

> <Compound>
Mizolastine

> <standard_units>
uM

> hash
7367034220649954496

$$$$
32
XXILIB    08252103503D 0   0.00000     0.00000

 32 36  0     1  0            999 V2000
    1.7822    4.0793    5.5788 F   0  0  0  0  0  1           0  0  0
   -7.2442    3.8725    0.8948 O   0  0  0  0  0  2           0  0  0
    2.1412    1.1484    0.0000 N   0  0  0  0  0  3           0  0  0
   -5.7360    2.1940    0.3780 N   0  0  0  0  0  3           0  0  0
    2.1376   -1.0709    0.0211 N   0  0  0  0  0  3           0  0  0
   -3.5928    2.6914   -0.4511 N   0  0  0  0  0  3           0  0  0
   -4.2096    0.4362   -0.1253 N   0  0  1  0  0  3           0  0  0
    0.0000    0.0000    0.0000 N   0  0  2  0  0  3           0  0  0
    1.7662    3.7078    4.2912 C   0  0  0  0  0  4           0  0  0
   -6.1478    3.5095    0.4831 C   0  0  0  0  0  4           0  0  0
    1.3590   -0.0000   -0.0000 C   0  0  0  0  0  4           0  0  0
   -4.4754    1.7976   -0.0815 C   0  0  0  0  0  4           0  0  0
    3.4679    0.7631   -0.0688 C   0  0  0  0  0  4           0  0  0
    3.4298   -0.6243   -0.0457 C   0  0  0  0  0  4           0  0  0
   -3.9540    4.0110   -0.3749 C   0  0  0  0  0  4           0  0  0
    1.7314    2.9300    1.6102 C   0  0  0  0  0  4           0  0  0
    0.6715    4.0335    3.4978 C   0  0  0  0  0  4           0  0  0
    2.8455    3.0037    3.7680 C   0  0  0  0  0  4           0  0  0
   -5.1300    4.4849    0.0482 C   0  0  0  0  0  4           0  0  0
    4.6695    1.4797   -0.1353 C   0  0  0  0  0  4           0  0  0
    4.6294   -1.3545   -0.0890 C   0  0  0  0  0  4           0  0  0
    0.6562    3.6460    2.1581 C   0  0  0  0  0  4           0  0  0
    2.8282    2.6169    2.4278 C   0  0  0  0  0  4           0  0  0
    5.8559    0.7404   -0.1834 C   0  0  0  0  0  4           0  0  0
    5.8381   -0.6540   -0.1602 C   0  0  0  0  0  4           0  0  0
    1.7198    2.5301    0.1662 C   0  0  0  0  0  4           0  0  0
   -2.8732   -0.1463    0.0447 C   0  0  2  0  0  4           0  0  0
   -0.6839    0.0000    1.2946 C   0  0  0  0  0  4           0  0  0
   -0.6847   -0.6950   -1.0919 C   0  0  0  0  0  4           0  0  0
   -5.3020   -0.5310   -0.2252 C   0  0  0  0  0  4           0  0  0
   -2.0889    0.5824    1.1441 C   0  0  0  0  0  4           0  0  0
   -2.0911   -0.1253   -1.2757 C   0  0  0  0  0  4           0  0  0
  1  9  1  0     0  0
  2 10  2  0     0  0
  3 11  1  0     0  0
  3 13  1  0     0  0
  3 26  1  0     0  0
  4 10  1  0     0  0
  4 12  1  0     0  0
  5 11  2  0     0  0
  5 14  1  0     0  0
  6 12  2  0     0  0
  6 15  1  0     0  0
  7 12  1  0     0  0
  7 27  1  0     0  0
  7 30  1  0     0  0
  8 11  1  0     0  0
  8 28  1  0     0  0
  8 29  1  0     0  0
  9 17  2  0     0  0
  9 18  1  0     0  0
 10 19  1  0     0  0
 13 14  2  0     0  0
 13 20  1  0     0  0
 14 21  1  0     0  0
 15 19  2  0     0  0
 16 22  2  0     0  0
 16 23  1  0     0  0
 16 26  1  0     0  0
 17 22  1  0     0  0
 18 23  2  0     0  0
 20 24  2  0     0  0
 21 25  2  0     0  0
 24 25  1  0     0  0
 27 31  1  0     0  0
 27 32  1  0     0  0
 28 31  1  0     0  0
 29 32  1  0     0  0
M  END
> <standard_type>
pIC50

> <# Confs.>
25

> <canonical_smiles>
CN(C1=NC=CC(N1)=O)C(CC2)CCN2C3=NC4=C(N3CC5=CC=C(F)C=C5)C=CC=C4

> <standard_relation>
=

> <Publication_ID>
nan

> <predicted_activity_value>
nan

> <actual_activity_value>
0.45593195564972433

> <Compound>
Mizolastine

> <standard_units>
uM

> hash
7367034220649954496

$$$$
32
XXILIB    08252103503D 0   0.00000     0.00000

 32 36  0     1  0            999 V2000
    4.1617   -0.1758   -6.9273 F   0  0  0  0  0  1           0  0  0
   -6.4988   -3.0313    2.0641 O   0  0  0  0  0  2           0  0  0
    2.1412    0.5742   -0.9945 N   0  0  0  0  0  3           0  0  0
   -5.3872   -1.3223    0.9675 N   0  0  0  0  0  3           0  0  0
    2.1376   -0.5172    0.9380 N   0  0  0  0  0  3           0  0  0
   -6.4817    0.0265   -0.6171 N   0  0  0  0  0  3           0  0  0
   -4.2096    0.4362   -0.1253 N   0  0  1  0  0  3           0  0  0
    0.0000   -0.0000    0.0000 N   0  0  2  0  0  3           0  0  0
    3.5830    0.2010   -5.7786 C   0  0  0  0  0  4           0  0  0
   -6.4850   -2.1130    1.2519 C   0  0  0  0  0  4           0  0  0
    1.3590    0.0000    0.0000 C   0  0  0  0  0  4           0  0  0
   -5.3925   -0.2688    0.0469 C   0  0  0  0  0  4           0  0  0
    3.4679    0.3220   -0.6953 C   0  0  0  0  0  4           0  0  0
    3.4298   -0.3517    0.5179 C   0  0  0  0  0  4           0  0  0
   -7.5971   -0.7330   -0.3790 C   0  0  0  0  0  4           0  0  0
    2.3814    0.9850   -3.3838 C   0  0  0  0  0  4           0  0  0
    3.5325    1.5507   -5.4475 C   0  0  0  0  0  4           0  0  0
    3.0406   -0.7637   -4.9362 C   0  0  0  0  0  4           0  0  0
   -7.6884   -1.7557    0.4770 C   0  0  0  0  0  4           0  0  0
    4.6695    0.6227   -1.3492 C   0  0  0  0  0  4           0  0  0
    4.6294   -0.7543    1.1286 C   0  0  0  0  0  4           0  0  0
    2.9302    1.9412   -4.2517 C   0  0  0  0  0  4           0  0  0
    2.4387   -0.3710   -3.7405 C   0  0  0  0  0  4           0  0  0
    5.8559    0.2113   -0.7330 C   0  0  0  0  0  4           0  0  0
    5.8381   -0.4658    0.4862 C   0  0  0  0  0  4           0  0  0
    1.7198    1.4090   -2.1080 C   0  0  0  0  0  4           0  0  0
   -2.8732   -0.1463    0.0447 C   0  0  2  0  0  4           0  0  0
   -0.6839   -0.0000    1.2946 C   0  0  0  0  0  4           0  0  0
   -0.6847   -0.6950   -1.0919 C   0  0  0  0  0  4           0  0  0
   -4.2303    1.8121   -0.6207 C   0  0  0  0  0  4           0  0  0
   -2.0889    0.5824    1.1441 C   0  0  0  0  0  4           0  0  0
   -2.0911   -0.1253   -1.2757 C   0  0  0  0  0  4           0  0  0
  1  9  1  0     0  0
  2 10  2  0     0  0
  3 11  1  0     0  0
  3 13  1  0     0  0
  3 26  1  0     0  0
  4 10  1  0     0  0
  4 12  1  0     0  0
  5 11  2  0     0  0
  5 14  1  0     0  0
  6 12  2  0     0  0
  6 15  1  0     0  0
  7 12  1  0     0  0
  7 27  1  0     0  0
  7 30  1  0     0  0
  8 11  1  0     0  0
  8 28  1  0     0  0
  8 29  1  0     0  0
  9 17  2  0     0  0
  9 18  1  0     0  0
 10 19  1  0     0  0
 13 14  2  0     0  0
 13 20  1  0     0  0
 14 21  1  0     0  0
 15 19  2  0     0  0
 16 22  2  0     0  0
 16 23  1  0     0  0
 16 26  1  0     0  0
 17 22  1  0     0  0
 18 23  2  0     0  0
 20 24  2  0     0  0
 21 25  2  0     0  0
 24 25  1  0     0  0
 27 31  1  0     0  0
 27 32  1  0     0  0
 28 31  1  0     0  0
 29 32  1  0     0  0
M  END
> <standard_type>
pIC50

> <# Confs.>
25

> <canonical_smiles>
CN(C1=NC=CC(N1)=O)C(CC2)CCN2C3=NC4=C(N3CC5=CC=C(F)C=C5)C=CC=C4

> <standard_relation>
=

> <Publication_ID>
nan

> <predicted_activity_value>
nan

> <actual_activity_value>
0.45593195564972433

> <Compound>
Mizolastine

> <standard_units>
uM

> hash
7367034220649954496

$$$$
32
XXILIB    08252103503D 0   0.00000     0.00000

 32 36  0     1  0            999 V2000
    0.4461    4.8846   -4.7870 F   0  0  0  0  0  1           0  0  0
   -7.2442    3.8725    0.8948 O   0  0  0  0  0  2           0  0  0
    2.1412    1.1484    0.0000 N   0  0  0  0  0  3           0  0  0
   -5.7360    2.1940    0.3780 N   0  0  0  0  0  3           0  0  0
    2.1376   -1.0709    0.0211 N   0  0  0  0  0  3           0  0  0
   -3.5928    2.6914   -0.4511 N   0  0  0  0  0  3           0  0  0
   -4.2096    0.4362   -0.1253 N   0  0  1  0  0  3           0  0  0
    0.0000    0.0000    0.0000 N   0  0  2  0  0  3           0  0  0
    0.7523    4.3248   -3.6083 C   0  0  0  0  0  4           0  0  0
   -6.1478    3.5095    0.4831 C   0  0  0  0  0  4           0  0  0
    1.3590    0.0000    0.0000 C   0  0  0  0  0  4           0  0  0
   -4.4754    1.7976   -0.0815 C   0  0  0  0  0  4           0  0  0
    3.4679    0.7631   -0.0688 C   0  0  0  0  0  4           0  0  0
    3.4298   -0.6243   -0.0457 C   0  0  0  0  0  4           0  0  0
   -3.9540    4.0110   -0.3749 C   0  0  0  0  0  4           0  0  0
    1.3941    3.1597   -1.1539 C   0  0  0  0  0  4           0  0  0
    0.6464    5.0781   -2.4441 C   0  0  0  0  0  4           0  0  0
    1.1695    2.9987   -3.5676 C   0  0  0  0  0  4           0  0  0
   -5.1300    4.4849    0.0482 C   0  0  0  0  0  4           0  0  0
    4.6695    1.4797   -0.1353 C   0  0  0  0  0  4           0  0  0
    4.6294   -1.3545   -0.0890 C   0  0  0  0  0  4           0  0  0
    0.9656    4.4943   -1.2184 C   0  0  0  0  0  4           0  0  0
    1.4884    2.4166   -2.3406 C   0  0  0  0  0  4           0  0  0
    5.8559    0.7404   -0.1834 C   0  0  0  0  0  4           0  0  0
    5.8381   -0.6540   -0.1602 C   0  0  0  0  0  4           0  0  0
    1.7198    2.5301    0.1662 C   0  0  0  0  0  4           0  0  0
   -2.8732   -0.1463    0.0447 C   0  0  2  0  0  4           0  0  0
   -0.6839    0.0000    1.2946 C   0  0  0  0  0  4           0  0  0
   -0.6847   -0.6950   -1.0919 C   0  0  0  0  0  4           0  0  0
   -5.3020   -0.5310   -0.2252 C   0  0  0  0  0  4           0  0  0
   -2.0889    0.5824    1.1441 C   0  0  0  0  0  4           0  0  0
   -2.0911   -0.1253   -1.2757 C   0  0  0  0  0  4           0  0  0
  1  9  1  0     0  0
  2 10  2  0     0  0
  3 11  1  0     0  0
  3 13  1  0     0  0
  3 26  1  0     0  0
  4 10  1  0     0  0
  4 12  1  0     0  0
  5 11  2  0     0  0
  5 14  1  0     0  0
  6 12  2  0     0  0
  6 15  1  0     0  0
  7 12  1  0     0  0
  7 27  1  0     0  0
  7 30  1  0     0  0
  8 11  1  0     0  0
  8 28  1  0     0  0
  8 29  1  0     0  0
  9 17  2  0     0  0
  9 18  1  0     0  0
 10 19  1  0     0  0
 13 14  2  0     0  0
 13 20  1  0     0  0
 14 21  1  0     0  0
 15 19  2  0     0  0
 16 22  2  0     0  0
 16 23  1  0     0  0
 16 26  1  0     0  0
 17 22  1  0     0  0
 18 23  2  0     0  0
 20 24  2  0     0  0
 21 25  2  0     0  0
 24 25  1  0     0  0
 27 31  1  0     0  0
 27 32  1  0     0  0
 28 31  1  0     0  0
 29 32  1  0     0  0
M  END
> <standard_type>
pIC50

> <# Confs.>
25

> <canonical_smiles>
CN(C1=NC=CC(N1)=O)C(CC2)CCN2C3=NC4=C(N3CC5=CC=C(F)C=C5)C=CC=C4

> <standard_relation>
=

> <Publication_ID>
nan

> <predicted_activity_value>
nan

> <actual_activity_value>
0.45593195564972433

> <Compound>
Mizolastine

> <standard_units>
uM

> hash
7367034220649954496

$$$$
32
XXILIB    08252103503D 0   0.00000     0.00000

 32 36  0     1  0            999 V2000
    0.5268   -1.6735   -6.6659 F   0  0  0  0  0  1           0  0  0
   -6.4988   -3.0313    2.0641 O   0  0  0  0  0  2           0  0  0
    2.1412    0.5742   -0.9945 N   0  0  0  0  0  3           0  0  0
   -5.3872   -1.3223    0.9675 N   0  0  0  0  0  3           0  0  0
    2.1376   -0.5172    0.9380 N   0  0  0  0  0  3           0  0  0
   -6.4817    0.0265   -0.6171 N   0  0  0  0  0  3           0  0  0
   -4.2096    0.4362   -0.1253 N   0  0  1  0  0  3           0  0  0
    0.0000   -0.0000    0.0000 N   0  0  2  0  0  3           0  0  0
    0.8090   -0.9416   -5.5792 C   0  0  0  0  0  4           0  0  0
   -6.4850   -2.1130    1.2519 C   0  0  0  0  0  4           0  0  0
    1.3590    0.0000   -0.0000 C   0  0  0  0  0  4           0  0  0
   -5.3925   -0.2688    0.0469 C   0  0  0  0  0  4           0  0  0
    3.4679    0.3220   -0.6953 C   0  0  0  0  0  4           0  0  0
    3.4298   -0.3517    0.5179 C   0  0  0  0  0  4           0  0  0
   -7.5971   -0.7330   -0.3790 C   0  0  0  0  0  4           0  0  0
    1.3941    0.5806   -3.3134 C   0  0  0  0  0  4           0  0  0
    1.9536   -1.2238   -4.8415 C   0  0  0  0  0  4           0  0  0
   -0.0464    0.0900   -5.2072 C   0  0  0  0  0  4           0  0  0
   -7.6884   -1.7557    0.4770 C   0  0  0  0  0  4           0  0  0
    4.6695    0.6227   -1.3492 C   0  0  0  0  0  4           0  0  0
    4.6294   -0.7543    1.1286 C   0  0  0  0  0  4           0  0  0
    2.2458   -0.4614   -3.7108 C   0  0  0  0  0  4           0  0  0
    0.2475    0.8514   -4.0758 C   0  0  0  0  0  4           0  0  0
    5.8559    0.2113   -0.7330 C   0  0  0  0  0  4           0  0  0
    5.8381   -0.4658    0.4862 C   0  0  0  0  0  4           0  0  0
    1.7198    1.4090   -2.1080 C   0  0  0  0  0  4           0  0  0
   -2.8732   -0.1463    0.0447 C   0  0  2  0  0  4           0  0  0
   -0.6839   -0.0000    1.2946 C   0  0  0  0  0  4           0  0  0
   -0.6847   -0.6950   -1.0919 C   0  0  0  0  0  4           0  0  0
   -4.2303    1.8121   -0.6207 C   0  0  0  0  0  4           0  0  0
   -2.0889    0.5824    1.1441 C   0  0  0  0  0  4           0  0  0
   -2.0911   -0.1253   -1.2757 C   0  0  0  0  0  4           0  0  0
  1  9  1  0     0  0
  2 10  2  0     0  0
  3 11  1  0     0  0
  3 13  1  0     0  0
  3 26  1  0     0  0
  4 10  1  0     0  0
  4 12  1  0     0  0
  5 11  2  0     0  0
  5 14  1  0     0  0
  6 12  2  0     0  0
  6 15  1  0     0  0
  7 12  1  0     0  0
  7 27  1  0     0  0
  7 30  1  0     0  0
  8 11  1  0     0  0
  8 28  1  0     0  0
  8 29  1  0     0  0
  9 17  2  0     0  0
  9 18  1  0     0  0
 10 19  1  0     0  0
 13 14  2  0     0  0
 13 20  1  0     0  0
 14 21  1  0     0  0
 15 19  2  0     0  0
 16 22  2  0     0  0
 16 23  1  0     0  0
 16 26  1  0     0  0
 17 22  1  0     0  0
 18 23  2  0     0  0
 20 24  2  0     0  0
 21 25  2  0     0  0
 24 25  1  0     0  0
 27 31  1  0     0  0
 27 32  1  0     0  0
 28 31  1  0     0  0
 29 32  1  0     0  0
M  END
> <standard_type>
pIC50

> <# Confs.>
25

> <canonical_smiles>
CN(C1=NC=CC(N1)=O)C(CC2)CCN2C3=NC4=C(N3CC5=CC=C(F)C=C5)C=CC=C4

> <standard_relation>
=

> <Publication_ID>
nan

> <predicted_activity_value>
nan

> <actual_activity_value>
0.45593195564972433

> <Compound>
Mizolastine

> <standard_units>
uM

> hash
7367034220649954496

$$$$
32
XXILIB    08252103503D 0   0.00000     0.00000

 32 36  0     1  0            999 V2000
    0.5268    4.9361   -4.7823 F   0  0  0  0  0  1           0  0  0
   -3.4519    4.7040   -1.9336 O   0  0  0  0  0  2           0  0  0
    2.1412    1.1484    0.0000 N   0  0  0  0  0  3           0  0  0
   -3.8333    2.6106   -1.0218 N   0  0  0  0  0  3           0  0  0
    2.1376   -1.0709    0.0211 N   0  0  0  0  0  3           0  0  0
   -5.2933    2.3192    0.7981 N   0  0  0  0  0  3           0  0  0
   -4.2096    0.4362   -0.1253 N   0  0  1  0  0  3           0  0  0
    0.0000    0.0000    0.0000 N   0  0  2  0  0  3           0  0  0
    0.8090    4.3610   -3.6050 C   0  0  0  0  0  4           0  0  0
   -3.9982    3.9804   -1.1081 C   0  0  0  0  0  4           0  0  0
    1.3590    0.0000    0.0000 C   0  0  0  0  0  4           0  0  0
   -4.4754    1.7976   -0.0815 C   0  0  0  0  0  4           0  0  0
    3.4679    0.7631   -0.0688 C   0  0  0  0  0  4           0  0  0
    3.4298   -0.6243   -0.0457 C   0  0  0  0  0  4           0  0  0
   -5.4853    3.6754    0.7617 C   0  0  0  0  0  4           0  0  0
    1.3941    3.1597   -1.1539 C   0  0  0  0  0  4           0  0  0
    1.9536    3.5810   -3.4806 C   0  0  0  0  0  4           0  0  0
   -0.0464    4.5546   -2.5256 C   0  0  0  0  0  4           0  0  0
   -4.9183    4.5308   -0.0948 C   0  0  0  0  0  4           0  0  0
    4.6695    1.4797   -0.1353 C   0  0  0  0  0  4           0  0  0
    4.6294   -1.3545   -0.0890 C   0  0  0  0  0  4           0  0  0
    2.2458    2.9830   -2.2550 C   0  0  0  0  0  4           0  0  0
    0.2475    3.9554   -1.3006 C   0  0  0  0  0  4           0  0  0
    5.8559    0.7404   -0.1834 C   0  0  0  0  0  4           0  0  0
    5.8381   -0.6540   -0.1602 C   0  0  0  0  0  4           0  0  0
    1.7198    2.5301    0.1662 C   0  0  0  0  0  4           0  0  0
   -2.8732   -0.1463    0.0447 C   0  0  2  0  0  4           0  0  0
   -0.6839    0.0000    1.2946 C   0  0  0  0  0  4           0  0  0
   -0.6847   -0.6950   -1.0919 C   0  0  0  0  0  4           0  0  0
   -5.3020   -0.5310   -0.2252 C   0  0  0  0  0  4           0  0  0
   -2.0889    0.5824    1.1441 C   0  0  0  0  0  4           0  0  0
   -2.0911   -0.1253   -1.2757 C   0  0  0  0  0  4           0  0  0
  1  9  1  0     0  0
  2 10  2  0     0  0
  3 11  1  0     0  0
  3 13  1  0     0  0
  3 26  1  0     0  0
  4 10  1  0     0  0
  4 12  1  0     0  0
  5 11  2  0     0  0
  5 14  1  0     0  0
  6 12  2  0     0  0
  6 15  1  0     0  0
  7 12  1  0     0  0
  7 27  1  0     0  0
  7 30  1  0     0  0
  8 11  1  0     0  0
  8 28  1  0     0  0
  8 29  1  0     0  0
  9 17  2  0     0  0
  9 18  1  0     0  0
 10 19  1  0     0  0
 13 14  2  0     0  0
 13 20  1  0     0  0
 14 21  1  0     0  0
 15 19  2  0     0  0
 16 22  2  0     0  0
 16 23  1  0     0  0
 16 26  1  0     0  0
 17 22  1  0     0  0
 18 23  2  0     0  0
 20 24  2  0     0  0
 21 25  2  0     0  0
 24 25  1  0     0  0
 27 31  1  0     0  0
 27 32  1  0     0  0
 28 31  1  0     0  0
 29 32  1  0     0  0
M  END
> <standard_type>
pIC50

> <# Confs.>
25

> <canonical_smiles>
CN(C1=NC=CC(N1)=O)C(CC2)CCN2C3=NC4=C(N3CC5=CC=C(F)C=C5)C=CC=C4

> <standard_relation>
=

> <Publication_ID>
nan

> <predicted_activity_value>
nan

> <actual_activity_value>
0.45593195564972433

> <Compound>
Mizolastine

> <standard_units>
uM

> hash
7367034220649954496

$$$$
32
XXILIB    08252103503D 0   0.00000     0.00000

 32 36  0     1  0            999 V2000
    1.7151    6.8641   -0.7146 F   0  0  0  0  0  1           0  0  0
   -6.9938    3.5612   -2.2560 O   0  0  0  0  0  2           0  0  0
    2.1412    0.5742   -0.9945 N   0  0  0  0  0  3           0  0  0
   -5.6031    2.0365   -1.2070 N   0  0  0  0  0  3           0  0  0
    2.1376   -0.5172    0.9380 N   0  0  0  0  0  3           0  0  0
   -3.6189    2.7216   -0.1479 N   0  0  0  0  0  3           0  0  0
   -4.2096    0.4362   -0.1253 N   0  0  1  0  0  3           0  0  0
    0.0000    0.0000    0.0000 N   0  0  2  0  0  3           0  0  0
    1.7191    5.5653   -1.0452 C   0  0  0  0  0  4           0  0  0
   -5.9744    3.3004   -1.6267 C   0  0  0  0  0  4           0  0  0
    1.3590   -0.0000    0.0000 C   0  0  0  0  0  4           0  0  0
   -4.4422    1.7582   -0.4774 C   0  0  0  0  0  4           0  0  0
    3.4679    0.3220   -0.6953 C   0  0  0  0  0  4           0  0  0
    3.4298   -0.3517    0.5179 C   0  0  0  0  0  4           0  0  0
   -3.9359    3.9934   -0.5474 C   0  0  0  0  0  4           0  0  0
    1.7314    2.8595   -1.7324 C   0  0  0  0  0  4           0  0  0
    1.1881    4.6319   -0.1616 C   0  0  0  0  0  4           0  0  0
    2.2526    5.1713   -2.2677 C   0  0  0  0  0  4           0  0  0
   -5.0169    4.3558   -1.2451 C   0  0  0  0  0  4           0  0  0
    4.6695    0.6227   -1.3492 C   0  0  0  0  0  4           0  0  0
    4.6294   -0.7543    1.1286 C   0  0  0  0  0  4           0  0  0
    1.1932    3.2807   -0.5069 C   0  0  0  0  0  4           0  0  0
    2.2569    3.8192   -2.6112 C   0  0  0  0  0  4           0  0  0
    5.8559    0.2113   -0.7330 C   0  0  0  0  0  4           0  0  0
    5.8381   -0.4658    0.4862 C   0  0  0  0  0  4           0  0  0
    1.7198    1.4090   -2.1080 C   0  0  0  0  0  4           0  0  0
   -2.8732   -0.1463    0.0447 C   0  0  2  0  0  4           0  0  0
   -0.6839   -0.0000    1.2946 C   0  0  0  0  0  4           0  0  0
   -0.6847   -0.6950   -1.0919 C   0  0  0  0  0  4           0  0  0
   -5.3222   -0.4457    0.2260 C   0  0  0  0  0  4           0  0  0
   -2.0889    0.5824    1.1441 C   0  0  0  0  0  4           0  0  0
   -2.0911   -0.1253   -1.2757 C   0  0  0  0  0  4           0  0  0
  1  9  1  0     0  0
  2 10  2  0     0  0
  3 11  1  0     0  0
  3 13  1  0     0  0
  3 26  1  0     0  0
  4 10  1  0     0  0
  4 12  1  0     0  0
  5 11  2  0     0  0
  5 14  1  0     0  0
  6 12  2  0     0  0
  6 15  1  0     0  0
  7 12  1  0     0  0
  7 27  1  0     0  0
  7 30  1  0     0  0
  8 11  1  0     0  0
  8 28  1  0     0  0
  8 29  1  0     0  0
  9 17  2  0     0  0
  9 18  1  0     0  0
 10 19  1  0     0  0
 13 14  2  0     0  0
 13 20  1  0     0  0
 14 21  1  0     0  0
 15 19  2  0     0  0
 16 22  2  0     0  0
 16 23  1  0     0  0
 16 26  1  0     0  0
 17 22  1  0     0  0
 18 23  2  0     0  0
 20 24  2  0     0  0
 21 25  2  0     0  0
 24 25  1  0     0  0
 27 31  1  0     0  0
 27 32  1  0     0  0
 28 31  1  0     0  0
 29 32  1  0     0  0
M  END
> <standard_type>
pIC50

> <# Confs.>
25

> <canonical_smiles>
CN(C1=NC=CC(N1)=O)C(CC2)CCN2C3=NC4=C(N3CC5=CC=C(F)C=C5)C=CC=C4

> <standard_relation>
=

> <Publication_ID>
nan

> <predicted_activity_value>
nan

> <actual_activity_value>
0.45593195564972433

> <Compound>
Mizolastine

> <standard_units>
uM

> hash
7367034220649954496

$$$$
32
XXILIB    08252103503D 0   0.00000     0.00000

 32 36  0     1  0            999 V2000
    0.5268   -1.8836    6.6096 F   0  0  0  0  0  1           0  0  0
   -7.2255    4.7887   -1.5080 O   0  0  0  0  0  2           0  0  0
    2.1412   -0.9945    0.5742 N   0  0  0  0  0  3           0  0  0
   -5.3253    3.6789   -0.7893 N   0  0  0  0  0  3           0  0  0
    2.1376    0.9169   -0.5538 N   0  0  0  0  0  3           0  0  0
   -5.4656    1.6098    0.3186 N   0  0  0  0  0  3           0  0  0
   -3.3435    2.5633   -0.0814 N   0  0  1  0  0  3           0  0  0
    0.0000    0.0000   -0.0000 N   0  0  2  0  0  3           0  0  0
    0.8090   -1.9742    5.3025 C   0  0  0  0  0  4           0  0  0
   -6.6890    3.8367   -0.9520 C   0  0  0  0  0  4           0  0  0
    1.3590   -0.0000    0.0000 C   0  0  0  0  0  4           0  0  0
   -4.7287    2.5787   -0.1638 C   0  0  0  0  0  4           0  0  0
    3.4679   -0.6265    0.4411 C   0  0  0  0  0  4           0  0  0
    3.4298    0.5635   -0.2726 C   0  0  0  0  0  4           0  0  0
   -6.8253    1.7213    0.1914 C   0  0  0  0  0  4           0  0  0
    1.3941   -2.1595    2.5792 C   0  0  0  0  0  4           0  0  0
    1.9536   -1.3609    4.8048 C   0  0  0  0  0  4           0  0  0
   -0.0464   -2.6816    4.4645 C   0  0  0  0  0  4           0  0  0
   -7.4845    2.7302   -0.3869 C   0  0  0  0  0  4           0  0  0
    4.6695   -1.2138    0.8571 C   0  0  0  0  0  4           0  0  0
    4.6294    1.2175   -0.6002 C   0  0  0  0  0  4           0  0  0
    2.2458   -1.4559    3.4443 C   0  0  0  0  0  4           0  0  0
    0.2475   -2.7752    3.1041 C   0  0  0  0  0  4           0  0  0
    5.8559   -0.5495    0.5291 C   0  0  0  0  0  4           0  0  0
    5.8381    0.6465   -0.1882 C   0  0  0  0  0  4           0  0  0
    1.7198   -2.2743    1.1211 C   0  0  0  0  0  4           0  0  0
   -2.5343    1.3389   -0.0690 C   0  0  2  0  0  4           0  0  0
   -0.8112   -0.0000    1.2151 C   0  0  0  0  0  4           0  0  0
   -0.7359    0.0229   -1.2619 C   0  0  0  0  0  4           0  0  0
   -2.5828    3.8116   -0.1265 C   0  0  0  0  0  4           0  0  0
   -1.7084    1.2401    1.2242 C   0  0  0  0  0  4           0  0  0
   -1.6262    1.2655   -1.3071 C   0  0  0  0  0  4           0  0  0
  1  9  1  0     0  0
  2 10  2  0     0  0
  3 11  1  0     0  0
  3 13  1  0     0  0
  3 26  1  0     0  0
  4 10  1  0     0  0
  4 12  1  0     0  0
  5 11  2  0     0  0
  5 14  1  0     0  0
  6 12  2  0     0  0
  6 15  1  0     0  0
  7 12  1  0     0  0
  7 27  1  0     0  0
  7 30  1  0     0  0
  8 11  1  0     0  0
  8 28  1  0     0  0
  8 29  1  0     0  0
  9 17  2  0     0  0
  9 18  1  0     0  0
 10 19  1  0     0  0
 13 14  2  0     0  0
 13 20  1  0     0  0
 14 21  1  0     0  0
 15 19  2  0     0  0
 16 22  2  0     0  0
 16 23  1  0     0  0
 16 26  1  0     0  0
 17 22  1  0     0  0
 18 23  2  0     0  0
 20 24  2  0     0  0
 21 25  2  0     0  0
 24 25  1  0     0  0
 27 31  1  0     0  0
 27 32  1  0     0  0
 28 31  1  0     0  0
 29 32  1  0     0  0
M  END
> <standard_type>
pIC50

> <# Confs.>
25

> <canonical_smiles>
CN(C1=NC=CC(N1)=O)C(CC2)CCN2C3=NC4=C(N3CC5=CC=C(F)C=C5)C=CC=C4

> <standard_relation>
=

> <Publication_ID>
nan

> <predicted_activity_value>
nan

> <actual_activity_value>
0.45593195564972433

> <Compound>
Mizolastine

> <standard_units>
uM

> hash
7367034220649954496

$$$$
32
XXILIB    08252103503D 0   0.00000     0.00000

 32 36  0     1  0            999 V2000
    4.1617    5.9113   -3.6159 F   0  0  0  0  0  1           0  0  0
   -7.2442    3.8725    0.8948 O   0  0  0  0  0  2           0  0  0
    2.1412    1.1484    0.0000 N   0  0  0  0  0  3           0  0  0
   -5.7360    2.1940    0.3780 N   0  0  0  0  0  3           0  0  0
    2.1376   -1.0709    0.0211 N   0  0  0  0  0  3           0  0  0
   -3.5928    2.6914   -0.4511 N   0  0  0  0  0  3           0  0  0
   -4.2096    0.4362   -0.1253 N   0  0  1  0  0  3           0  0  0
    0.0000    0.0000    0.0000 N   0  0  2  0  0  3           0  0  0
    3.5830    5.1049   -2.7152 C   0  0  0  0  0  4           0  0  0
   -6.1478    3.5095    0.4831 C   0  0  0  0  0  4           0  0  0
    1.3590    0.0000    0.0000 C   0  0  0  0  0  4           0  0  0
   -4.4754    1.7976   -0.0815 C   0  0  0  0  0  4           0  0  0
    3.4679    0.7631   -0.0688 C   0  0  0  0  0  4           0  0  0
    3.4298   -0.6243   -0.0457 C   0  0  0  0  0  4           0  0  0
   -3.9540    4.0110   -0.3749 C   0  0  0  0  0  4           0  0  0
    2.3814    3.4230   -0.8388 C   0  0  0  0  0  4           0  0  0
    3.5325    5.4930   -1.3808 C   0  0  0  0  0  4           0  0  0
    3.0406    3.8931   -3.1295 C   0  0  0  0  0  4           0  0  0
   -5.1300    4.4849    0.0482 C   0  0  0  0  0  4           0  0  0
    4.6695    1.4797   -0.1353 C   0  0  0  0  0  4           0  0  0
    4.6294   -1.3545   -0.0890 C   0  0  0  0  0  4           0  0  0
    2.9302    4.6527   -0.4447 C   0  0  0  0  0  4           0  0  0
    2.4387    3.0539   -2.1916 C   0  0  0  0  0  4           0  0  0
    5.8559    0.7404   -0.1834 C   0  0  0  0  0  4           0  0  0
    5.8381   -0.6540   -0.1602 C   0  0  0  0  0  4           0  0  0
    1.7198    2.5301    0.1662 C   0  0  0  0  0  4           0  0  0
   -2.8732   -0.1463    0.0447 C   0  0  2  0  0  4           0  0  0
   -0.6839    0.0000    1.2946 C   0  0  0  0  0  4           0  0  0
   -0.6847   -0.6950   -1.0919 C   0  0  0  0  0  4           0  0  0
   -5.3020   -0.5310   -0.2252 C   0  0  0  0  0  4           0  0  0
   -2.0889    0.5824    1.1441 C   0  0  0  0  0  4           0  0  0
   -2.0911   -0.1253   -1.2757 C   0  0  0  0  0  4           0  0  0
  1  9  1  0     0  0
  2 10  2  0     0  0
  3 11  1  0     0  0
  3 13  1  0     0  0
  3 26  1  0     0  0
  4 10  1  0     0  0
  4 12  1  0     0  0
  5 11  2  0     0  0
  5 14  1  0     0  0
  6 12  2  0     0  0
  6 15  1  0     0  0
  7 12  1  0     0  0
  7 27  1  0     0  0
  7 30  1  0     0  0
  8 11  1  0     0  0
  8 28  1  0     0  0
  8 29  1  0     0  0
  9 17  2  0     0  0
  9 18  1  0     0  0
 10 19  1  0     0  0
 13 14  2  0     0  0
 13 20  1  0     0  0
 14 21  1  0     0  0
 15 19  2  0     0  0
 16 22  2  0     0  0
 16 23  1  0     0  0
 16 26  1  0     0  0
 17 22  1  0     0  0
 18 23  2  0     0  0
 20 24  2  0     0  0
 21 25  2  0     0  0
 24 25  1  0     0  0
 27 31  1  0     0  0
 27 32  1  0     0  0
 28 31  1  0     0  0
 29 32  1  0     0  0
M  END
> <standard_type>
pIC50

> <# Confs.>
25

> <canonical_smiles>
CN(C1=NC=CC(N1)=O)C(CC2)CCN2C3=NC4=C(N3CC5=CC=C(F)C=C5)C=CC=C4

> <standard_relation>
=

> <Publication_ID>
nan

> <predicted_activity_value>
nan

> <actual_activity_value>
0.45593195564972433

> <Compound>
Mizolastine

> <standard_units>
uM

> hash
7367034220649954496

$$$$
26
XXILIB    08252103503D 0   0.00000     0.00000

 21 23  0     1  0            999 V2000
   -0.5571    0.0000    1.3465 N   0  0  1  0  0  3           0  0  0
    1.8537   -1.1240   -2.2880 N   0  0  1  0  0  3           0  0  0
   -1.3759    1.1243    1.6274 C   0  0  0  0  0  4           0  0  0
   -0.3358   -1.1273    2.1834 C   0  0  0  0  0  4           0  0  0
   -1.2126    1.8752    2.8029 C   0  0  0  0  0  4           0  0  0
   -0.3419   -1.0782    3.5993 C   0  0  0  0  0  4           0  0  0
   -2.3823    1.5230    0.7228 C   0  0  0  0  0  4           0  0  0
   -0.1384   -2.4036    1.5935 C   0  0  0  0  0  4           0  0  0
   -2.0322    2.9895    3.0516 C   0  0  0  0  0  4           0  0  0
   -0.1796   -2.2739    4.3422 C   0  0  0  0  0  4           0  0  0
   -3.1915    2.6319    0.9750 C   0  0  0  0  0  4           0  0  0
    0.0373   -3.5682    2.3447 C   0  0  0  0  0  4           0  0  0
   -3.0156    3.3661    2.1407 C   0  0  0  0  0  4           0  0  0
    0.0130   -3.5040    3.7248 C   0  0  0  0  0  4           0  0  0
    0.0000    0.0000   -0.0000 C   0  0  0  0  0  4           0  0  0
    2.1628   -0.0000   -1.3991 C   0  0  0  0  0  4           0  0  0
    2.5415   -0.9574   -3.5703 C   0  0  0  0  0  4           0  0  0
    2.2246   -2.4073   -1.6864 C   0  0  0  0  0  4           0  0  0
   -0.1543    1.4928    3.7969 C   0  0  0  0  0  4           0  0  0
   -0.5104    0.1654    4.4480 C   0  0  0  0  0  4           0  0  0
    1.5277   -0.0000   -0.0000 C   0  0  0  0  0  4           0  0  0
  1  3  1  0     0  0
  1  4  1  0     0  0
  1 15  1  0     0  0
  2 16  1  0     0  0
  2 17  1  0     0  0
  2 18  1  0     0  0
  3  5  2  0     0  0
  3  7  1  0     0  0
  4  6  2  0     0  0
  4  8  1  0     0  0
  5  9  1  0     0  0
  5 19  1  0     0  0
  6 10  1  0     0  0
  6 20  1  0     0  0
  7 11  2  0     0  0
  8 12  2  0     0  0
  9 13  2  0     0  0
 10 14  2  0     0  0
 11 13  1  0     0  0
 12 14  1  0     0  0
 15 21  1  0     0  0
 16 21  1  0     0  0
 19 20  1  0     0  0
M  END
> <standard_type>
pIC50

> <# Confs.>
25

> <canonical_smiles>
CN(C)CCCN1C2=C(C=CC=C2)CCC3=C1C=CC=C3

> <standard_relation>
=

> <Publication_ID>
nan

> <predicted_activity_value>
nan

> <actual_activity_value>
-0.5314789170422551

> <Compound>
Imipramine 

> <standard_units>
uM

> hash
6039825334654182997

$$$$
26
XXILIB    08252103503D 0   0.00000     0.00000

 21 23  0     1  0            999 V2000
   -0.5571   -0.0000    1.3465 N   0  0  1  0  0  3           0  0  0
    1.8537   -1.1240   -2.2880 N   0  0  1  0  0  3           0  0  0
   -1.3755   -1.1243    1.6266 C   0  0  0  0  0  4           0  0  0
   -0.3398    1.1269    2.1845 C   0  0  0  0  0  4           0  0  0
   -1.2064   -1.8791    2.7985 C   0  0  0  0  0  4           0  0  0
   -0.3525    1.0758    3.6004 C   0  0  0  0  0  4           0  0  0
   -2.3874   -1.5175    0.7259 C   0  0  0  0  0  4           0  0  0
   -0.1424    2.4041    1.5964 C   0  0  0  0  0  4           0  0  0
   -2.0227   -2.9957    3.0454 C   0  0  0  0  0  4           0  0  0
   -0.2028    2.2716    4.3453 C   0  0  0  0  0  4           0  0  0
   -3.1961   -2.6265    0.9781 C   0  0  0  0  0  4           0  0  0
    0.0243    3.5683    2.3502 C   0  0  0  0  0  4           0  0  0
   -3.0117   -3.3674    2.1385 C   0  0  0  0  0  4           0  0  0
   -0.0109    3.5029    3.7301 C   0  0  0  0  0  4           0  0  0
    0.0000   -0.0000    0.0000 C   0  0  0  0  0  4           0  0  0
    2.1628   -0.0000   -1.3991 C   0  0  0  0  0  4           0  0  0
    2.5415   -0.9574   -3.5703 C   0  0  0  0  0  4           0  0  0
    2.2246   -2.4073   -1.6864 C   0  0  0  0  0  4           0  0  0
   -0.1494   -1.4945    3.7930 C   0  0  0  0  0  4           0  0  0
   -0.5141   -0.1707    4.4471 C   0  0  0  0  0  4           0  0  0
    1.5277   -0.0000   -0.0000 C   0  0  0  0  0  4           0  0  0
  1  3  1  0     0  0
  1  4  1  0     0  0
  1 15  1  0     0  0
  2 16  1  0     0  0
  2 17  1  0     0  0
  2 18  1  0     0  0
  3  5  2  0     0  0
  3  7  1  0     0  0
  4  6  2  0     0  0
  4  8  1  0     0  0
  5  9  1  0     0  0
  5 19  1  0     0  0
  6 10  1  0     0  0
  6 20  1  0     0  0
  7 11  2  0     0  0
  8 12  2  0     0  0
  9 13  2  0     0  0
 10 14  2  0     0  0
 11 13  1  0     0  0
 12 14  1  0     0  0
 15 21  1  0     0  0
 16 21  1  0     0  0
 19 20  1  0     0  0
M  END
> <standard_type>
pIC50

> <# Confs.>
25

> <canonical_smiles>
CN(C)CCCN1C2=C(C=CC=C2)CCC3=C1C=CC=C3

> <standard_relation>
=

> <Publication_ID>
nan

> <predicted_activity_value>
nan

> <actual_activity_value>
-0.5314789170422551

> <Compound>
Imipramine 

> <standard_units>
uM

> hash
6039825334654182997

$$$$
26
XXILIB    08252103503D 0   0.00000     0.00000

 21 23  0     1  0            999 V2000
   -0.5571    0.0000    1.3465 N   0  0  1  0  0  3           0  0  0
    1.8537    1.1240   -2.2880 N   0  0  1  0  0  3           0  0  0
   -1.3759    1.1243    1.6274 C   0  0  0  0  0  4           0  0  0
   -0.3358   -1.1273    2.1834 C   0  0  0  0  0  4           0  0  0
   -1.2126    1.8752    2.8029 C   0  0  0  0  0  4           0  0  0
   -0.3419   -1.0782    3.5993 C   0  0  0  0  0  4           0  0  0
   -2.3823    1.5230    0.7228 C   0  0  0  0  0  4           0  0  0
   -0.1384   -2.4036    1.5935 C   0  0  0  0  0  4           0  0  0
   -2.0322    2.9895    3.0516 C   0  0  0  0  0  4           0  0  0
   -0.1796   -2.2739    4.3422 C   0  0  0  0  0  4           0  0  0
   -3.1915    2.6319    0.9750 C   0  0  0  0  0  4           0  0  0
    0.0373   -3.5682    2.3447 C   0  0  0  0  0  4           0  0  0
   -3.0156    3.3661    2.1407 C   0  0  0  0  0  4           0  0  0
    0.0130   -3.5040    3.7248 C   0  0  0  0  0  4           0  0  0
    0.0000    0.0000   -0.0000 C   0  0  0  0  0  4           0  0  0
    2.1628    0.0000   -1.3991 C   0  0  0  0  0  4           0  0  0
    2.2891    2.3832   -1.6797 C   0  0  0  0  0  4           0  0  0
    2.4804    0.9625   -3.6024 C   0  0  0  0  0  4           0  0  0
   -0.1543    1.4928    3.7969 C   0  0  0  0  0  4           0  0  0
   -0.5104    0.1654    4.4480 C   0  0  0  0  0  4           0  0  0
    1.5277    0.0000    0.0000 C   0  0  0  0  0  4           0  0  0
  1  3  1  0     0  0
  1  4  1  0     0  0
  1 15  1  0     0  0
  2 16  1  0     0  0
  2 17  1  0     0  0
  2 18  1  0     0  0
  3  5  2  0     0  0
  3  7  1  0     0  0
  4  6  2  0     0  0
  4  8  1  0     0  0
  5  9  1  0     0  0
  5 19  1  0     0  0
  6 10  1  0     0  0
  6 20  1  0     0  0
  7 11  2  0     0  0
  8 12  2  0     0  0
  9 13  2  0     0  0
 10 14  2  0     0  0
 11 13  1  0     0  0
 12 14  1  0     0  0
 15 21  1  0     0  0
 16 21  1  0     0  0
 19 20  1  0     0  0
M  END
> <standard_type>
pIC50

> <# Confs.>
25

> <canonical_smiles>
CN(C)CCCN1C2=C(C=CC=C2)CCC3=C1C=CC=C3

> <standard_relation>
=

> <Publication_ID>
nan

> <predicted_activity_value>
nan

> <actual_activity_value>
-0.5314789170422551

> <Compound>
Imipramine 

> <standard_units>
uM

> hash
6039825334654182997

$$$$
26
XXILIB    08252103503D 0   0.00000     0.00000

 21 23  0     1  0            999 V2000
   -0.5571   -0.0000    1.3465 N   0  0  1  0  0  3           0  0  0
    1.8537    1.1240   -2.2880 N   0  0  1  0  0  3           0  0  0
   -1.3755   -1.1243    1.6266 C   0  0  0  0  0  4           0  0  0
   -0.3398    1.1269    2.1845 C   0  0  0  0  0  4           0  0  0
   -1.2064   -1.8791    2.7985 C   0  0  0  0  0  4           0  0  0
   -0.3525    1.0758    3.6004 C   0  0  0  0  0  4           0  0  0
   -2.3874   -1.5175    0.7259 C   0  0  0  0  0  4           0  0  0
   -0.1424    2.4041    1.5964 C   0  0  0  0  0  4           0  0  0
   -2.0227   -2.9957    3.0454 C   0  0  0  0  0  4           0  0  0
   -0.2028    2.2716    4.3453 C   0  0  0  0  0  4           0  0  0
   -3.1961   -2.6265    0.9781 C   0  0  0  0  0  4           0  0  0
    0.0243    3.5683    2.3502 C   0  0  0  0  0  4           0  0  0
   -3.0117   -3.3674    2.1385 C   0  0  0  0  0  4           0  0  0
   -0.0109    3.5029    3.7301 C   0  0  0  0  0  4           0  0  0
    0.0000   -0.0000    0.0000 C   0  0  0  0  0  4           0  0  0
    2.1628    0.0000   -1.3991 C   0  0  0  0  0  4           0  0  0
    2.2891    2.3832   -1.6797 C   0  0  0  0  0  4           0  0  0
    2.4804    0.9625   -3.6024 C   0  0  0  0  0  4           0  0  0
   -0.1494   -1.4945    3.7930 C   0  0  0  0  0  4           0  0  0
   -0.5141   -0.1707    4.4471 C   0  0  0  0  0  4           0  0  0
    1.5277    0.0000    0.0000 C   0  0  0  0  0  4           0  0  0
  1  3  1  0     0  0
  1  4  1  0     0  0
  1 15  1  0     0  0
  2 16  1  0     0  0
  2 17  1  0     0  0
  2 18  1  0     0  0
  3  5  2  0     0  0
  3  7  1  0     0  0
  4  6  2  0     0  0
  4  8  1  0     0  0
  5  9  1  0     0  0
  5 19  1  0     0  0
  6 10  1  0     0  0
  6 20  1  0     0  0
  7 11  2  0     0  0
  8 12  2  0     0  0
  9 13  2  0     0  0
 10 14  2  0     0  0
 11 13  1  0     0  0
 12 14  1  0     0  0
 15 21  1  0     0  0
 16 21  1  0     0  0
 19 20  1  0     0  0
M  END
> <standard_type>
pIC50

> <# Confs.>
25

> <canonical_smiles>
CN(C)CCCN1C2=C(C=CC=C2)CCC3=C1C=CC=C3

> <standard_relation>
=

> <Publication_ID>
nan

> <predicted_activity_value>
nan

> <actual_activity_value>
-0.5314789170422551

> <Compound>
Imipramine 

> <standard_units>
uM

> hash
6039825334654182997

$$$$
26
XXILIB    08252103503D 0   0.00000     0.00000

 21 23  0     1  0            999 V2000
   -0.5571    0.0000    1.3465 N   0  0  1  0  0  3           0  0  0
    3.6264    0.0000   -1.4832 N   0  0  1  0  0  3           0  0  0
   -1.3759    1.1243    1.6274 C   0  0  0  0  0  4           0  0  0
   -0.3358   -1.1273    2.1834 C   0  0  0  0  0  4           0  0  0
   -1.2126    1.8752    2.8029 C   0  0  0  0  0  4           0  0  0
   -0.3419   -1.0782    3.5993 C   0  0  0  0  0  4           0  0  0
   -2.3823    1.5230    0.7228 C   0  0  0  0  0  4           0  0  0
   -0.1384   -2.4036    1.5935 C   0  0  0  0  0  4           0  0  0
   -2.0322    2.9895    3.0516 C   0  0  0  0  0  4           0  0  0
   -0.1796   -2.2739    4.3422 C   0  0  0  0  0  4           0  0  0
   -3.1915    2.6319    0.9750 C   0  0  0  0  0  4           0  0  0
    0.0373   -3.5682    2.3447 C   0  0  0  0  0  4           0  0  0
   -3.0156    3.3661    2.1407 C   0  0  0  0  0  4           0  0  0
    0.0130   -3.5040    3.7248 C   0  0  0  0  0  4           0  0  0
    0.0000    0.0000   -0.0000 C   0  0  0  0  0  4           0  0  0
    2.1628    0.0000   -1.3991 C   0  0  0  0  0  4           0  0  0
    4.0514    0.0000   -2.8848 C   0  0  0  0  0  4           0  0  0
    4.2084    1.1495   -0.7858 C   0  0  0  0  0  4           0  0  0
   -0.1543    1.4928    3.7969 C   0  0  0  0  0  4           0  0  0
   -0.5104    0.1654    4.4480 C   0  0  0  0  0  4           0  0  0
    1.5277    0.0000    0.0000 C   0  0  0  0  0  4           0  0  0
  1  3  1  0     0  0
  1  4  1  0     0  0
  1 15  1  0     0  0
  2 16  1  0     0  0
  2 17  1  0     0  0
  2 18  1  0     0  0
  3  5  2  0     0  0
  3  7  1  0     0  0
  4  6  2  0     0  0
  4  8  1  0     0  0
  5  9  1  0     0  0
  5 19  1  0     0  0
  6 10  1  0     0  0
  6 20  1  0     0  0
  7 11  2  0     0  0
  8 12  2  0     0  0
  9 13  2  0     0  0
 10 14  2  0     0  0
 11 13  1  0     0  0
 12 14  1  0     0  0
 15 21  1  0     0  0
 16 21  1  0     0  0
 19 20  1  0     0  0
M  END
> <standard_type>
pIC50

> <# Confs.>
25

> <canonical_smiles>
CN(C)CCCN1C2=C(C=CC=C2)CCC3=C1C=CC=C3

> <standard_relation>
=

> <Publication_ID>
nan

> <predicted_activity_value>
nan

> <actual_activity_value>
-0.5314789170422551

> <Compound>
Imipramine 

> <standard_units>
uM

> hash
6039825334654182997

$$$$
26
XXILIB    08252103503D 0   0.00000     0.00000

 21 23  0     1  0            999 V2000
   -0.5571   -0.0000    1.3465 N   0  0  1  0  0  3           0  0  0
    3.6264    0.0000   -1.4832 N   0  0  1  0  0  3           0  0  0
   -1.3755   -1.1243    1.6266 C   0  0  0  0  0  4           0  0  0
   -0.3398    1.1269    2.1845 C   0  0  0  0  0  4           0  0  0
   -1.2064   -1.8791    2.7985 C   0  0  0  0  0  4           0  0  0
   -0.3525    1.0758    3.6004 C   0  0  0  0  0  4           0  0  0
   -2.3874   -1.5175    0.7259 C   0  0  0  0  0  4           0  0  0
   -0.1424    2.4041    1.5964 C   0  0  0  0  0  4           0  0  0
   -2.0227   -2.9957    3.0454 C   0  0  0  0  0  4           0  0  0
   -0.2028    2.2716    4.3453 C   0  0  0  0  0  4           0  0  0
   -3.1961   -2.6265    0.9781 C   0  0  0  0  0  4           0  0  0
    0.0243    3.5683    2.3502 C   0  0  0  0  0  4           0  0  0
   -3.0117   -3.3674    2.1385 C   0  0  0  0  0  4           0  0  0
   -0.0109    3.5029    3.7301 C   0  0  0  0  0  4           0  0  0
    0.0000   -0.0000    0.0000 C   0  0  0  0  0  4           0  0  0
    2.1628    0.0000   -1.3991 C   0  0  0  0  0  4           0  0  0
    4.0514    0.0000   -2.8848 C   0  0  0  0  0  4           0  0  0
    4.2084    1.1495   -0.7858 C   0  0  0  0  0  4           0  0  0
   -0.1494   -1.4945    3.7930 C   0  0  0  0  0  4           0  0  0
   -0.5141   -0.1707    4.4471 C   0  0  0  0  0  4           0  0  0
    1.5277    0.0000    0.0000 C   0  0  0  0  0  4           0  0  0
  1  3  1  0     0  0
  1  4  1  0     0  0
  1 15  1  0     0  0
  2 16  1  0     0  0
  2 17  1  0     0  0
  2 18  1  0     0  0
  3  5  2  0     0  0
  3  7  1  0     0  0
  4  6  2  0     0  0
  4  8  1  0     0  0
  5  9  1  0     0  0
  5 19  1  0     0  0
  6 10  1  0     0  0
  6 20  1  0     0  0
  7 11  2  0     0  0
  8 12  2  0     0  0
  9 13  2  0     0  0
 10 14  2  0     0  0
 11 13  1  0     0  0
 12 14  1  0     0  0
 15 21  1  0     0  0
 16 21  1  0     0  0
 19 20  1  0     0  0
M  END
> <standard_type>
pIC50

> <# Confs.>
25

> <canonical_smiles>
CN(C)CCCN1C2=C(C=CC=C2)CCC3=C1C=CC=C3

> <standard_relation>
=

> <Publication_ID>
nan

> <predicted_activity_value>
nan

> <actual_activity_value>
-0.5314789170422551

> <Compound>
Imipramine 

> <standard_units>
uM

> hash
6039825334654182997

$$$$
26
XXILIB    08252103503D 0   0.00000     0.00000

 21 23  0     1  0            999 V2000
   -0.5571    0.0000    1.3465 N   0  0  1  0  0  3           0  0  0
    3.6264    1.2845    0.7416 N   0  0  1  0  0  3           0  0  0
   -1.3759    1.1243    1.6274 C   0  0  0  0  0  4           0  0  0
   -0.3358   -1.1273    2.1834 C   0  0  0  0  0  4           0  0  0
   -1.2126    1.8752    2.8029 C   0  0  0  0  0  4           0  0  0
   -0.3419   -1.0782    3.5993 C   0  0  0  0  0  4           0  0  0
   -2.3823    1.5230    0.7228 C   0  0  0  0  0  4           0  0  0
   -0.1384   -2.4036    1.5935 C   0  0  0  0  0  4           0  0  0
   -2.0322    2.9895    3.0516 C   0  0  0  0  0  4           0  0  0
   -0.1796   -2.2739    4.3422 C   0  0  0  0  0  4           0  0  0
   -3.1915    2.6319    0.9750 C   0  0  0  0  0  4           0  0  0
    0.0373   -3.5682    2.3447 C   0  0  0  0  0  4           0  0  0
   -3.0156    3.3661    2.1407 C   0  0  0  0  0  4           0  0  0
    0.0130   -3.5040    3.7248 C   0  0  0  0  0  4           0  0  0
    0.0000    0.0000   -0.0000 C   0  0  0  0  0  4           0  0  0
    2.1628    1.2116    0.6995 C   0  0  0  0  0  4           0  0  0
    4.0514    2.4983    1.4424 C   0  0  0  0  0  4           0  0  0
    4.2084    0.1058    1.3884 C   0  0  0  0  0  4           0  0  0
   -0.1543    1.4928    3.7969 C   0  0  0  0  0  4           0  0  0
   -0.5104    0.1654    4.4480 C   0  0  0  0  0  4           0  0  0
    1.5277   -0.0000    0.0000 C   0  0  0  0  0  4           0  0  0
  1  3  1  0     0  0
  1  4  1  0     0  0
  1 15  1  0     0  0
  2 16  1  0     0  0
  2 17  1  0     0  0
  2 18  1  0     0  0
  3  5  2  0     0  0
  3  7  1  0     0  0
  4  6  2  0     0  0
  4  8  1  0     0  0
  5  9  1  0     0  0
  5 19  1  0     0  0
  6 10  1  0     0  0
  6 20  1  0     0  0
  7 11  2  0     0  0
  8 12  2  0     0  0
  9 13  2  0     0  0
 10 14  2  0     0  0
 11 13  1  0     0  0
 12 14  1  0     0  0
 15 21  1  0     0  0
 16 21  1  0     0  0
 19 20  1  0     0  0
M  END
> <standard_type>
pIC50

> <# Confs.>
25

> <canonical_smiles>
CN(C)CCCN1C2=C(C=CC=C2)CCC3=C1C=CC=C3

> <standard_relation>
=

> <Publication_ID>
nan

> <predicted_activity_value>
nan

> <actual_activity_value>
-0.5314789170422551

> <Compound>
Imipramine 

> <standard_units>
uM

> hash
6039825334654182997

$$$$
26
XXILIB    08252103503D 0   0.00000     0.00000

 21 23  0     1  0            999 V2000
   -0.5571   -0.0000    1.3465 N   0  0  1  0  0  3           0  0  0
    3.6264   -1.2845    0.7416 N   0  0  1  0  0  3           0  0  0
   -1.3755   -1.1243    1.6266 C   0  0  0  0  0  4           0  0  0
   -0.3398    1.1269    2.1845 C   0  0  0  0  0  4           0  0  0
   -1.2064   -1.8791    2.7985 C   0  0  0  0  0  4           0  0  0
   -0.3525    1.0758    3.6004 C   0  0  0  0  0  4           0  0  0
   -2.3874   -1.5175    0.7259 C   0  0  0  0  0  4           0  0  0
   -0.1424    2.4041    1.5964 C   0  0  0  0  0  4           0  0  0
   -2.0227   -2.9957    3.0454 C   0  0  0  0  0  4           0  0  0
   -0.2028    2.2716    4.3453 C   0  0  0  0  0  4           0  0  0
   -3.1961   -2.6265    0.9781 C   0  0  0  0  0  4           0  0  0
    0.0243    3.5683    2.3502 C   0  0  0  0  0  4           0  0  0
   -3.0117   -3.3674    2.1385 C   0  0  0  0  0  4           0  0  0
   -0.0109    3.5029    3.7301 C   0  0  0  0  0  4           0  0  0
    0.0000   -0.0000    0.0000 C   0  0  0  0  0  4           0  0  0
    2.1628   -1.2116    0.6995 C   0  0  0  0  0  4           0  0  0
    4.1698   -0.1199    1.4441 C   0  0  0  0  0  4           0  0  0
    4.0884   -2.5161    1.3867 C   0  0  0  0  0  4           0  0  0
   -0.1494   -1.4945    3.7930 C   0  0  0  0  0  4           0  0  0
   -0.5141   -0.1707    4.4471 C   0  0  0  0  0  4           0  0  0
    1.5277    0.0000   -0.0000 C   0  0  0  0  0  4           0  0  0
  1  3  1  0     0  0
  1  4  1  0     0  0
  1 15  1  0     0  0
  2 16  1  0     0  0
  2 17  1  0     0  0
  2 18  1  0     0  0
  3  5  2  0     0  0
  3  7  1  0     0  0
  4  6  2  0     0  0
  4  8  1  0     0  0
  5  9  1  0     0  0
  5 19  1  0     0  0
  6 10  1  0     0  0
  6 20  1  0     0  0
  7 11  2  0     0  0
  8 12  2  0     0  0
  9 13  2  0     0  0
 10 14  2  0     0  0
 11 13  1  0     0  0
 12 14  1  0     0  0
 15 21  1  0     0  0
 16 21  1  0     0  0
 19 20  1  0     0  0
M  END
> <standard_type>
pIC50

> <# Confs.>
25

> <canonical_smiles>
CN(C)CCCN1C2=C(C=CC=C2)CCC3=C1C=CC=C3

> <standard_relation>
=

> <Publication_ID>
nan

> <predicted_activity_value>
nan

> <actual_activity_value>
-0.5314789170422551

> <Compound>
Imipramine 

> <standard_units>
uM

> hash
6039825334654182997

$$$$
26
XXILIB    08252103503D 0   0.00000     0.00000

 21 23  0     1  0            999 V2000
   -0.5571   -0.0000    1.3465 N   0  0  1  0  0  3           0  0  0
    1.8537   -1.1240   -2.2880 N   0  0  1  0  0  3           0  0  0
    0.1062    0.8183    2.2940 C   0  0  0  0  0  4           0  0  0
   -1.8279   -0.6084    1.5360 C   0  0  0  0  0  4           0  0  0
    0.4177    0.3268    3.5737 C   0  0  0  0  0  4           0  0  0
   -2.2577   -1.1626    2.7663 C   0  0  0  0  0  4           0  0  0
    0.4767    2.1412    1.9818 C   0  0  0  0  0  4           0  0  0
   -2.7585   -0.6238    0.4644 C   0  0  0  0  0  4           0  0  0
    1.0729    1.1467    4.5064 C   0  0  0  0  0  4           0  0  0
   -3.5692   -1.6870    2.8725 C   0  0  0  0  0  4           0  0  0
    1.1302    2.9496    2.9133 C   0  0  0  0  0  4           0  0  0
   -4.0429   -1.1572    0.5881 C   0  0  0  0  0  4           0  0  0
    1.4273    2.4525    4.1764 C   0  0  0  0  0  4           0  0  0
   -4.4509   -1.6895    1.7974 C   0  0  0  0  0  4           0  0  0
    0.0000    0.0000    0.0000 C   0  0  0  0  0  4           0  0  0
    2.1628   -0.0000   -1.3991 C   0  0  0  0  0  4           0  0  0
    2.5415   -0.9574   -3.5703 C   0  0  0  0  0  4           0  0  0
    2.2246   -2.4073   -1.6864 C   0  0  0  0  0  4           0  0  0
    0.0678   -1.0901    3.9312 C   0  0  0  0  0  4           0  0  0
   -1.4404   -1.2598    4.0396 C   0  0  0  0  0  4           0  0  0
    1.5277   -0.0000   -0.0000 C   0  0  0  0  0  4           0  0  0
  1  3  1  0     0  0
  1  4  1  0     0  0
  1 15  1  0     0  0
  2 16  1  0     0  0
  2 17  1  0     0  0
  2 18  1  0     0  0
  3  5  2  0     0  0
  3  7  1  0     0  0
  4  6  2  0     0  0
  4  8  1  0     0  0
  5  9  1  0     0  0
  5 19  1  0     0  0
  6 10  1  0     0  0
  6 20  1  0     0  0
  7 11  2  0     0  0
  8 12  2  0     0  0
  9 13  2  0     0  0
 10 14  2  0     0  0
 11 13  1  0     0  0
 12 14  1  0     0  0
 15 21  1  0     0  0
 16 21  1  0     0  0
 19 20  1  0     0  0
M  END
> <standard_type>
pIC50

> <# Confs.>
25

> <canonical_smiles>
CN(C)CCCN1C2=C(C=CC=C2)CCC3=C1C=CC=C3

> <standard_relation>
=

> <Publication_ID>
nan

> <predicted_activity_value>
nan

> <actual_activity_value>
-0.5314789170422551

> <Compound>
Imipramine 

> <standard_units>
uM

> hash
6039825334654182997

$$$$
26
XXILIB    08252103503D 0   0.00000     0.00000

 21 23  0     1  0            999 V2000
   -0.5571   -0.0000    1.3465 N   0  0  1  0  0  3           0  0  0
    1.8537   -1.1240   -2.2880 N   0  0  1  0  0  3           0  0  0
    0.1432   -0.8345    2.2550 C   0  0  0  0  0  4           0  0  0
   -1.7633    0.7090    1.5955 C   0  0  0  0  0  4           0  0  0
    0.5377   -0.3704    3.5202 C   0  0  0  0  0  4           0  0  0
   -2.1339    1.2217    2.8634 C   0  0  0  0  0  4           0  0  0
    0.4660   -2.1627    1.9066 C   0  0  0  0  0  4           0  0  0
   -2.6956    0.8890    0.5400 C   0  0  0  0  0  4           0  0  0
    1.2413   -1.2142    4.3960 C   0  0  0  0  0  4           0  0  0
   -3.3954    1.8460    3.0242 C   0  0  0  0  0  4           0  0  0
    1.1635   -2.9962    2.7820 C   0  0  0  0  0  4           0  0  0
   -3.9260    1.5267    0.7156 C   0  0  0  0  0  4           0  0  0
    1.5532   -2.5202    4.0274 C   0  0  0  0  0  4           0  0  0
   -4.2798    2.0029    1.9638 C   0  0  0  0  0  4           0  0  0
    0.0000    0.0000    0.0000 C   0  0  0  0  0  4           0  0  0
    2.1628   -0.0000   -1.3991 C   0  0  0  0  0  4           0  0  0
    2.5415   -0.9574   -3.5703 C   0  0  0  0  0  4           0  0  0
    2.2246   -2.4073   -1.6864 C   0  0  0  0  0  4           0  0  0
    0.2086    1.0327    3.9411 C   0  0  0  0  0  4           0  0  0
   -1.2944    1.1770    4.1242 C   0  0  0  0  0  4           0  0  0
    1.5277   -0.0000   -0.0000 C   0  0  0  0  0  4           0  0  0
  1  3  1  0     0  0
  1  4  1  0     0  0
  1 15  1  0     0  0
  2 16  1  0     0  0
  2 17  1  0     0  0
  2 18  1  0     0  0
  3  5  2  0     0  0
  3  7  1  0     0  0
  4  6  2  0     0  0
  4  8  1  0     0  0
  5  9  1  0     0  0
  5 19  1  0     0  0
  6 10  1  0     0  0
  6 20  1  0     0  0
  7 11  2  0     0  0
  8 12  2  0     0  0
  9 13  2  0     0  0
 10 14  2  0     0  0
 11 13  1  0     0  0
 12 14  1  0     0  0
 15 21  1  0     0  0
 16 21  1  0     0  0
 19 20  1  0     0  0
M  END
> <standard_type>
pIC50

> <# Confs.>
25

> <canonical_smiles>
CN(C)CCCN1C2=C(C=CC=C2)CCC3=C1C=CC=C3

> <standard_relation>
=

> <Publication_ID>
nan

> <predicted_activity_value>
nan

> <actual_activity_value>
-0.5314789170422551

> <Compound>
Imipramine 

> <standard_units>
uM

> hash
6039825334654182997

$$$$
26
XXILIB    08252103503D 0   0.00000     0.00000

 21 23  0     1  0            999 V2000
   -0.5571   -0.0000    1.3465 N   0  0  1  0  0  3           0  0  0
    3.6264   -0.0000   -1.4832 N   0  0  1  0  0  3           0  0  0
   -0.2068    1.1024    2.1645 C   0  0  0  0  0  4           0  0  0
   -1.5742   -0.9485    1.6410 C   0  0  0  0  0  4           0  0  0
    0.2168    0.9064    3.4905 C   0  0  0  0  0  4           0  0  0
   -1.8330   -1.4443    2.9420 C   0  0  0  0  0  4           0  0  0
   -0.2667    2.4219    1.6742 C   0  0  0  0  0  4           0  0  0
   -2.4292   -1.3972    0.6006 C   0  0  0  0  0  4           0  0  0
    0.5593    2.0059    4.2939 C   0  0  0  0  0  4           0  0  0
   -2.9135   -2.3376    3.1438 C   0  0  0  0  0  4           0  0  0
    0.0777    3.5099    2.4778 C   0  0  0  0  0  4           0  0  0
   -3.4816   -2.2882    0.8203 C   0  0  0  0  0  4           0  0  0
    0.4897    3.3018    3.7884 C   0  0  0  0  0  4           0  0  0
   -3.7260   -2.7592    2.0973 C   0  0  0  0  0  4           0  0  0
    0.0000    0.0000    0.0000 C   0  0  0  0  0  4           0  0  0
    2.1628    0.0000   -1.3991 C   0  0  0  0  0  4           0  0  0
    4.1698    1.1907   -0.8259 C   0  0  0  0  0  4           0  0  0
    4.2027   -1.2066   -0.8846 C   0  0  0  0  0  4           0  0  0
    0.3250   -0.4889    4.0376 C   0  0  0  0  0  4           0  0  0
   -1.0542   -1.1108    4.1994 C   0  0  0  0  0  4           0  0  0
    1.5277   -0.0000    0.0000 C   0  0  0  0  0  4           0  0  0
  1  3  1  0     0  0
  1  4  1  0     0  0
  1 15  1  0     0  0
  2 16  1  0     0  0
  2 17  1  0     0  0
  2 18  1  0     0  0
  3  5  2  0     0  0
  3  7  1  0     0  0
  4  6  2  0     0  0
  4  8  1  0     0  0
  5  9  1  0     0  0
  5 19  1  0     0  0
  6 10  1  0     0  0
  6 20  1  0     0  0
  7 11  2  0     0  0
  8 12  2  0     0  0
  9 13  2  0     0  0
 10 14  2  0     0  0
 11 13  1  0     0  0
 12 14  1  0     0  0
 15 21  1  0     0  0
 16 21  1  0     0  0
 19 20  1  0     0  0
M  END
> <standard_type>
pIC50

> <# Confs.>
25

> <canonical_smiles>
CN(C)CCCN1C2=C(C=CC=C2)CCC3=C1C=CC=C3

> <standard_relation>
=

> <Publication_ID>
nan

> <predicted_activity_value>
nan

> <actual_activity_value>
-0.5314789170422551

> <Compound>
Imipramine 

> <standard_units>
uM

> hash
6039825334654182997

$$$$
26
XXILIB    08252103503D 0   0.00000     0.00000

 21 23  0     1  0            999 V2000
   -0.5571    0.0000    1.3465 N   0  0  1  0  0  3           0  0  0
    3.6264    0.0000   -1.4832 N   0  0  1  0  0  3           0  0  0
   -1.3760    1.1340    1.6131 C   0  0  0  0  0  4           0  0  0
   -0.1747   -1.0591    2.2220 C   0  0  0  0  0  4           0  0  0
   -1.2135    1.9203    2.7666 C   0  0  0  0  0  4           0  0  0
   -0.2181   -0.9847    3.6365 C   0  0  0  0  0  4           0  0  0
   -2.3830    1.5237    0.7017 C   0  0  0  0  0  4           0  0  0
    0.2339   -2.3068    1.6779 C   0  0  0  0  0  4           0  0  0
   -2.0242    3.0515    2.9805 C   0  0  0  0  0  4           0  0  0
    0.0791   -2.1313    4.4162 C   0  0  0  0  0  4           0  0  0
   -3.1875    2.6441    0.9227 C   0  0  0  0  0  4           0  0  0
    0.5483   -3.4194    2.4639 C   0  0  0  0  0  4           0  0  0
   -3.0059    3.4113    2.0632 C   0  0  0  0  0  4           0  0  0
    0.4601   -3.3353    3.8389 C   0  0  0  0  0  4           0  0  0
    0.0000    0.0000   -0.0000 C   0  0  0  0  0  4           0  0  0
    2.1628    0.0000   -1.3991 C   0  0  0  0  0  4           0  0  0
    4.1698   -1.1907   -0.8259 C   0  0  0  0  0  4           0  0  0
    4.0884    0.0572   -2.8723 C   0  0  0  0  0  4           0  0  0
   -0.1779    1.5677    3.7933 C   0  0  0  0  0  4           0  0  0
   -0.5533    0.2483    4.4462 C   0  0  0  0  0  4           0  0  0
    1.5277   -0.0000    0.0000 C   0  0  0  0  0  4           0  0  0
  1  3  1  0     0  0
  1  4  1  0     0  0
  1 15  1  0     0  0
  2 16  1  0     0  0
  2 17  1  0     0  0
  2 18  1  0     0  0
  3  5  2  0     0  0
  3  7  1  0     0  0
  4  6  2  0     0  0
  4  8  1  0     0  0
  5  9  1  0     0  0
  5 19  1  0     0  0
  6 10  1  0     0  0
  6 20  1  0     0  0
  7 11  2  0     0  0
  8 12  2  0     0  0
  9 13  2  0     0  0
 10 14  2  0     0  0
 11 13  1  0     0  0
 12 14  1  0     0  0
 15 21  1  0     0  0
 16 21  1  0     0  0
 19 20  1  0     0  0
M  END
> <standard_type>
pIC50

> <# Confs.>
25

> <canonical_smiles>
CN(C)CCCN1C2=C(C=CC=C2)CCC3=C1C=CC=C3

> <standard_relation>
=

> <Publication_ID>
nan

> <predicted_activity_value>
nan

> <actual_activity_value>
-0.5314789170422551

> <Compound>
Imipramine 

> <standard_units>
uM

> hash
6039825334654182997

$$$$
26
XXILIB    08252103503D 0   0.00000     0.00000

 21 23  0     1  0            999 V2000
   -0.5571   -0.0000    1.3465 N   0  0  1  0  0  3           0  0  0
    3.6264   -0.0000   -1.4832 N   0  0  1  0  0  3           0  0  0
   -0.1760   -1.1243    2.1230 C   0  0  0  0  0  4           0  0  0
   -1.4824    1.0149    1.7118 C   0  0  0  0  0  4           0  0  0
    0.3180   -0.9783    3.4293 C   0  0  0  0  0  4           0  0  0
   -1.6989    1.4479    3.0433 C   0  0  0  0  0  4           0  0  0
   -0.2821   -2.4289    1.5971 C   0  0  0  0  0  4           0  0  0
   -2.2874    1.6167    0.7089 C   0  0  0  0  0  4           0  0  0
    0.7000   -2.1081    4.1720 C   0  0  0  0  0  4           0  0  0
   -2.7016    2.4123    3.3113 C   0  0  0  0  0  4           0  0  0
    0.0974   -3.5470    2.3409 C   0  0  0  0  0  4           0  0  0
   -3.2566    2.5818    0.9926 C   0  0  0  0  0  4           0  0  0
    0.5909   -3.3857    3.6292 C   0  0  0  0  0  4           0  0  0
   -3.4683    2.9778    2.2995 C   0  0  0  0  0  4           0  0  0
    0.0000    0.0000    0.0000 C   0  0  0  0  0  4           0  0  0
    2.1628    0.0000   -1.3991 C   0  0  0  0  0  4           0  0  0
    4.1698    1.1907   -0.8259 C   0  0  0  0  0  4           0  0  0
    4.2027   -1.2066   -0.8846 C   0  0  0  0  0  4           0  0  0
    0.4403    0.3891    4.0370 C   0  0  0  0  0  4           0  0  0
   -0.9436    0.9758    4.2694 C   0  0  0  0  0  4           0  0  0
    1.5277   -0.0000    0.0000 C   0  0  0  0  0  4           0  0  0
  1  3  1  0     0  0
  1  4  1  0     0  0
  1 15  1  0     0  0
  2 16  1  0     0  0
  2 17  1  0     0  0
  2 18  1  0     0  0
  3  5  2  0     0  0
  3  7  1  0     0  0
  4  6  2  0     0  0
  4  8  1  0     0  0
  5  9  1  0     0  0
  5 19  1  0     0  0
  6 10  1  0     0  0
  6 20  1  0     0  0
  7 11  2  0     0  0
  8 12  2  0     0  0
  9 13  2  0     0  0
 10 14  2  0     0  0
 11 13  1  0     0  0
 12 14  1  0     0  0
 15 21  1  0     0  0
 16 21  1  0     0  0
 19 20  1  0     0  0
M  END
> <standard_type>
pIC50

> <# Confs.>
25

> <canonical_smiles>
CN(C)CCCN1C2=C(C=CC=C2)CCC3=C1C=CC=C3

> <standard_relation>
=

> <Publication_ID>
nan

> <predicted_activity_value>
nan

> <actual_activity_value>
-0.5314789170422551

> <Compound>
Imipramine 

> <standard_units>
uM

> hash
6039825334654182997

$$$$
26
XXILIB    08252103503D 0   0.00000     0.00000

 21 23  0     1  0            999 V2000
   -0.5571    0.0000    1.3465 N   0  0  1  0  0  3           0  0  0
    1.8537    2.5435    0.1706 N   0  0  1  0  0  3           0  0  0
   -1.3759    1.1243    1.6274 C   0  0  0  0  0  4           0  0  0
   -0.3358   -1.1273    2.1834 C   0  0  0  0  0  4           0  0  0
   -1.2126    1.8752    2.8029 C   0  0  0  0  0  4           0  0  0
   -0.3419   -1.0782    3.5993 C   0  0  0  0  0  4           0  0  0
   -2.3823    1.5230    0.7228 C   0  0  0  0  0  4           0  0  0
   -0.1384   -2.4036    1.5935 C   0  0  0  0  0  4           0  0  0
   -2.0322    2.9895    3.0516 C   0  0  0  0  0  4           0  0  0
   -0.1796   -2.2739    4.3422 C   0  0  0  0  0  4           0  0  0
   -3.1915    2.6319    0.9750 C   0  0  0  0  0  4           0  0  0
    0.0373   -3.5682    2.3447 C   0  0  0  0  0  4           0  0  0
   -3.0156    3.3661    2.1407 C   0  0  0  0  0  4           0  0  0
    0.0130   -3.5040    3.7248 C   0  0  0  0  0  4           0  0  0
    0.0000    0.0000   -0.0000 C   0  0  0  0  0  4           0  0  0
    2.1628    1.2116    0.6995 C   0  0  0  0  0  4           0  0  0
    2.5415    3.5707    0.9560 C   0  0  0  0  0  4           0  0  0
    2.2246    2.6642   -1.2416 C   0  0  0  0  0  4           0  0  0
   -0.1543    1.4928    3.7969 C   0  0  0  0  0  4           0  0  0
   -0.5104    0.1654    4.4480 C   0  0  0  0  0  4           0  0  0
    1.5277    0.0000   -0.0000 C   0  0  0  0  0  4           0  0  0
  1  3  1  0     0  0
  1  4  1  0     0  0
  1 15  1  0     0  0
  2 16  1  0     0  0
  2 17  1  0     0  0
  2 18  1  0     0  0
  3  5  2  0     0  0
  3  7  1  0     0  0
  4  6  2  0     0  0
  4  8  1  0     0  0
  5  9  1  0     0  0
  5 19  1  0     0  0
  6 10  1  0     0  0
  6 20  1  0     0  0
  7 11  2  0     0  0
  8 12  2  0     0  0
  9 13  2  0     0  0
 10 14  2  0     0  0
 11 13  1  0     0  0
 12 14  1  0     0  0
 15 21  1  0     0  0
 16 21  1  0     0  0
 19 20  1  0     0  0
M  END
> <standard_type>
pIC50

> <# Confs.>
25

> <canonical_smiles>
CN(C)CCCN1C2=C(C=CC=C2)CCC3=C1C=CC=C3

> <standard_relation>
=

> <Publication_ID>
nan

> <predicted_activity_value>
nan

> <actual_activity_value>
-0.5314789170422551

> <Compound>
Imipramine 

> <standard_units>
uM

> hash
6039825334654182997

$$$$
26
XXILIB    08252103503D 0   0.00000     0.00000

 21 23  0     1  0            999 V2000
   -0.5571   -0.0000    1.3465 N   0  0  1  0  0  3           0  0  0
    3.6264   -1.2845    0.7416 N   0  0  1  0  0  3           0  0  0
    0.1062    0.8183    2.2940 C   0  0  0  0  0  4           0  0  0
   -1.8279   -0.6084    1.5360 C   0  0  0  0  0  4           0  0  0
    0.4177    0.3268    3.5737 C   0  0  0  0  0  4           0  0  0
   -2.2577   -1.1626    2.7663 C   0  0  0  0  0  4           0  0  0
    0.4767    2.1412    1.9818 C   0  0  0  0  0  4           0  0  0
   -2.7585   -0.6238    0.4644 C   0  0  0  0  0  4           0  0  0
    1.0729    1.1467    4.5064 C   0  0  0  0  0  4           0  0  0
   -3.5692   -1.6870    2.8725 C   0  0  0  0  0  4           0  0  0
    1.1302    2.9496    2.9133 C   0  0  0  0  0  4           0  0  0
   -4.0429   -1.1572    0.5881 C   0  0  0  0  0  4           0  0  0
    1.4273    2.4525    4.1764 C   0  0  0  0  0  4           0  0  0
   -4.4509   -1.6895    1.7974 C   0  0  0  0  0  4           0  0  0
    0.0000    0.0000    0.0000 C   0  0  0  0  0  4           0  0  0
    2.1628   -1.2116    0.6995 C   0  0  0  0  0  4           0  0  0
    4.1698   -0.1199    1.4441 C   0  0  0  0  0  4           0  0  0
    4.0884   -2.5161    1.3867 C   0  0  0  0  0  4           0  0  0
    0.0678   -1.0901    3.9312 C   0  0  0  0  0  4           0  0  0
   -1.4404   -1.2598    4.0396 C   0  0  0  0  0  4           0  0  0
    1.5277    0.0000   -0.0000 C   0  0  0  0  0  4           0  0  0
  1  3  1  0     0  0
  1  4  1  0     0  0
  1 15  1  0     0  0
  2 16  1  0     0  0
  2 17  1  0     0  0
  2 18  1  0     0  0
  3  5  2  0     0  0
  3  7  1  0     0  0
  4  6  2  0     0  0
  4  8  1  0     0  0
  5  9  1  0     0  0
  5 19  1  0     0  0
  6 10  1  0     0  0
  6 20  1  0     0  0
  7 11  2  0     0  0
  8 12  2  0     0  0
  9 13  2  0     0  0
 10 14  2  0     0  0
 11 13  1  0     0  0
 12 14  1  0     0  0
 15 21  1  0     0  0
 16 21  1  0     0  0
 19 20  1  0     0  0
M  END
> <standard_type>
pIC50

> <# Confs.>
25

> <canonical_smiles>
CN(C)CCCN1C2=C(C=CC=C2)CCC3=C1C=CC=C3

> <standard_relation>
=

> <Publication_ID>
nan

> <predicted_activity_value>
nan

> <actual_activity_value>
-0.5314789170422551

> <Compound>
Imipramine 

> <standard_units>
uM

> hash
6039825334654182997

$$$$
26
XXILIB    08252103503D 0   0.00000     0.00000

 21 23  0     1  0            999 V2000
   -0.5571   -0.0000    1.3465 N   0  0  1  0  0  3           0  0  0
    3.6264   -1.2845    0.7416 N   0  0  1  0  0  3           0  0  0
   -0.2068    1.1024    2.1645 C   0  0  0  0  0  4           0  0  0
   -1.5742   -0.9485    1.6410 C   0  0  0  0  0  4           0  0  0
    0.2168    0.9064    3.4905 C   0  0  0  0  0  4           0  0  0
   -1.8330   -1.4443    2.9420 C   0  0  0  0  0  4           0  0  0
   -0.2667    2.4219    1.6742 C   0  0  0  0  0  4           0  0  0
   -2.4292   -1.3972    0.6006 C   0  0  0  0  0  4           0  0  0
    0.5593    2.0059    4.2939 C   0  0  0  0  0  4           0  0  0
   -2.9135   -2.3376    3.1438 C   0  0  0  0  0  4           0  0  0
    0.0777    3.5099    2.4778 C   0  0  0  0  0  4           0  0  0
   -3.4816   -2.2882    0.8203 C   0  0  0  0  0  4           0  0  0
    0.4897    3.3018    3.7884 C   0  0  0  0  0  4           0  0  0
   -3.7260   -2.7592    2.0973 C   0  0  0  0  0  4           0  0  0
    0.0000    0.0000    0.0000 C   0  0  0  0  0  4           0  0  0
    2.1628   -1.2116    0.6995 C   0  0  0  0  0  4           0  0  0
    4.0514   -2.4983    1.4424 C   0  0  0  0  0  4           0  0  0
    4.2084   -1.2553   -0.6026 C   0  0  0  0  0  4           0  0  0
    0.3250   -0.4889    4.0376 C   0  0  0  0  0  4           0  0  0
   -1.0542   -1.1108    4.1994 C   0  0  0  0  0  4           0  0  0
    1.5277   -0.0000   -0.0000 C   0  0  0  0  0  4           0  0  0
  1  3  1  0     0  0
  1  4  1  0     0  0
  1 15  1  0     0  0
  2 16  1  0     0  0
  2 17  1  0     0  0
  2 18  1  0     0  0
  3  5  2  0     0  0
  3  7  1  0     0  0
  4  6  2  0     0  0
  4  8  1  0     0  0
  5  9  1  0     0  0
  5 19  1  0     0  0
  6 10  1  0     0  0
  6 20  1  0     0  0
  7 11  2  0     0  0
  8 12  2  0     0  0
  9 13  2  0     0  0
 10 14  2  0     0  0
 11 13  1  0     0  0
 12 14  1  0     0  0
 15 21  1  0     0  0
 16 21  1  0     0  0
 19 20  1  0     0  0
M  END
> <standard_type>
pIC50

> <# Confs.>
25

> <canonical_smiles>
CN(C)CCCN1C2=C(C=CC=C2)CCC3=C1C=CC=C3

> <standard_relation>
=

> <Publication_ID>
nan

> <predicted_activity_value>
nan

> <actual_activity_value>
-0.5314789170422551

> <Compound>
Imipramine 

> <standard_units>
uM

> hash
6039825334654182997

$$$$
26
XXILIB    08252103503D 0   0.00000     0.00000

 21 23  0     1  0            999 V2000
   -0.5571   -0.0000    1.3465 N   0  0  1  0  0  3           0  0  0
    3.6264    0.0000   -1.4832 N   0  0  1  0  0  3           0  0  0
    0.1062    0.8183    2.2940 C   0  0  0  0  0  4           0  0  0
   -1.8279   -0.6084    1.5360 C   0  0  0  0  0  4           0  0  0
    0.4177    0.3268    3.5737 C   0  0  0  0  0  4           0  0  0
   -2.2577   -1.1626    2.7663 C   0  0  0  0  0  4           0  0  0
    0.4767    2.1412    1.9818 C   0  0  0  0  0  4           0  0  0
   -2.7585   -0.6238    0.4644 C   0  0  0  0  0  4           0  0  0
    1.0729    1.1467    4.5064 C   0  0  0  0  0  4           0  0  0
   -3.5692   -1.6870    2.8725 C   0  0  0  0  0  4           0  0  0
    1.1302    2.9496    2.9133 C   0  0  0  0  0  4           0  0  0
   -4.0429   -1.1572    0.5881 C   0  0  0  0  0  4           0  0  0
    1.4273    2.4525    4.1764 C   0  0  0  0  0  4           0  0  0
   -4.4509   -1.6895    1.7974 C   0  0  0  0  0  4           0  0  0
    0.0000    0.0000    0.0000 C   0  0  0  0  0  4           0  0  0
    2.1628    0.0000   -1.3991 C   0  0  0  0  0  4           0  0  0
    4.0514    0.0000   -2.8848 C   0  0  0  0  0  4           0  0  0
    4.2084    1.1495   -0.7858 C   0  0  0  0  0  4           0  0  0
    0.0678   -1.0901    3.9312 C   0  0  0  0  0  4           0  0  0
   -1.4404   -1.2598    4.0396 C   0  0  0  0  0  4           0  0  0
    1.5277    0.0000    0.0000 C   0  0  0  0  0  4           0  0  0
  1  3  1  0     0  0
  1  4  1  0     0  0
  1 15  1  0     0  0
  2 16  1  0     0  0
  2 17  1  0     0  0
  2 18  1  0     0  0
  3  5  2  0     0  0
  3  7  1  0     0  0
  4  6  2  0     0  0
  4  8  1  0     0  0
  5  9  1  0     0  0
  5 19  1  0     0  0
  6 10  1  0     0  0
  6 20  1  0     0  0
  7 11  2  0     0  0
  8 12  2  0     0  0
  9 13  2  0     0  0
 10 14  2  0     0  0
 11 13  1  0     0  0
 12 14  1  0     0  0
 15 21  1  0     0  0
 16 21  1  0     0  0
 19 20  1  0     0  0
M  END
> <standard_type>
pIC50

> <# Confs.>
25

> <canonical_smiles>
CN(C)CCCN1C2=C(C=CC=C2)CCC3=C1C=CC=C3

> <standard_relation>
=

> <Publication_ID>
nan

> <predicted_activity_value>
nan

> <actual_activity_value>
-0.5314789170422551

> <Compound>
Imipramine 

> <standard_units>
uM

> hash
6039825334654182997

$$$$
26
XXILIB    08252103503D 0   0.00000     0.00000

 21 23  0     1  0            999 V2000
   -0.5571   -0.0000    1.3465 N   0  0  1  0  0  3           0  0  0
    1.8537   -2.5435    0.1706 N   0  0  1  0  0  3           0  0  0
   -1.3755   -1.1243    1.6266 C   0  0  0  0  0  4           0  0  0
   -0.3398    1.1269    2.1845 C   0  0  0  0  0  4           0  0  0
   -1.2064   -1.8791    2.7985 C   0  0  0  0  0  4           0  0  0
   -0.3525    1.0758    3.6004 C   0  0  0  0  0  4           0  0  0
   -2.3874   -1.5175    0.7259 C   0  0  0  0  0  4           0  0  0
   -0.1424    2.4041    1.5964 C   0  0  0  0  0  4           0  0  0
   -2.0227   -2.9957    3.0454 C   0  0  0  0  0  4           0  0  0
   -0.2028    2.2716    4.3453 C   0  0  0  0  0  4           0  0  0
   -3.1961   -2.6265    0.9781 C   0  0  0  0  0  4           0  0  0
    0.0243    3.5683    2.3502 C   0  0  0  0  0  4           0  0  0
   -3.0117   -3.3674    2.1385 C   0  0  0  0  0  4           0  0  0
   -0.0109    3.5029    3.7301 C   0  0  0  0  0  4           0  0  0
    0.0000   -0.0000    0.0000 C   0  0  0  0  0  4           0  0  0
    2.1628   -1.2116    0.6995 C   0  0  0  0  0  4           0  0  0
    2.2891   -2.6463   -1.2241 C   0  0  0  0  0  4           0  0  0
    2.4804   -3.6010    0.9677 C   0  0  0  0  0  4           0  0  0
   -0.1494   -1.4945    3.7930 C   0  0  0  0  0  4           0  0  0
   -0.5141   -0.1707    4.4471 C   0  0  0  0  0  4           0  0  0
    1.5277   -0.0000   -0.0000 C   0  0  0  0  0  4           0  0  0
  1  3  1  0     0  0
  1  4  1  0     0  0
  1 15  1  0     0  0
  2 16  1  0     0  0
  2 17  1  0     0  0
  2 18  1  0     0  0
  3  5  2  0     0  0
  3  7  1  0     0  0
  4  6  2  0     0  0
  4  8  1  0     0  0
  5  9  1  0     0  0
  5 19  1  0     0  0
  6 10  1  0     0  0
  6 20  1  0     0  0
  7 11  2  0     0  0
  8 12  2  0     0  0
  9 13  2  0     0  0
 10 14  2  0     0  0
 11 13  1  0     0  0
 12 14  1  0     0  0
 15 21  1  0     0  0
 16 21  1  0     0  0
 19 20  1  0     0  0
M  END
> <standard_type>
pIC50

> <# Confs.>
25

> <canonical_smiles>
CN(C)CCCN1C2=C(C=CC=C2)CCC3=C1C=CC=C3

> <standard_relation>
=

> <Publication_ID>
nan

> <predicted_activity_value>
nan

> <actual_activity_value>
-0.5314789170422551

> <Compound>
Imipramine 

> <standard_units>
uM

> hash
6039825334654182997

$$$$
26
XXILIB    08252103503D 0   0.00000     0.00000

 21 23  0     1  0            999 V2000
   -0.5571   -0.0000    1.3465 N   0  0  1  0  0  3           0  0  0
    1.8537    1.1240   -2.2880 N   0  0  1  0  0  3           0  0  0
    0.1432   -0.8345    2.2550 C   0  0  0  0  0  4           0  0  0
   -1.7633    0.7090    1.5955 C   0  0  0  0  0  4           0  0  0
    0.5377   -0.3704    3.5202 C   0  0  0  0  0  4           0  0  0
   -2.1339    1.2217    2.8634 C   0  0  0  0  0  4           0  0  0
    0.4660   -2.1627    1.9066 C   0  0  0  0  0  4           0  0  0
   -2.6956    0.8890    0.5400 C   0  0  0  0  0  4           0  0  0
    1.2413   -1.2142    4.3960 C   0  0  0  0  0  4           0  0  0
   -3.3954    1.8460    3.0242 C   0  0  0  0  0  4           0  0  0
    1.1635   -2.9962    2.7820 C   0  0  0  0  0  4           0  0  0
   -3.9260    1.5267    0.7156 C   0  0  0  0  0  4           0  0  0
    1.5532   -2.5202    4.0274 C   0  0  0  0  0  4           0  0  0
   -4.2798    2.0029    1.9638 C   0  0  0  0  0  4           0  0  0
    0.0000    0.0000    0.0000 C   0  0  0  0  0  4           0  0  0
    2.1628    0.0000   -1.3991 C   0  0  0  0  0  4           0  0  0
    2.2891    2.3832   -1.6797 C   0  0  0  0  0  4           0  0  0
    2.4804    0.9625   -3.6024 C   0  0  0  0  0  4           0  0  0
    0.2086    1.0327    3.9411 C   0  0  0  0  0  4           0  0  0
   -1.2944    1.1770    4.1242 C   0  0  0  0  0  4           0  0  0
    1.5277    0.0000    0.0000 C   0  0  0  0  0  4           0  0  0
  1  3  1  0     0  0
  1  4  1  0     0  0
  1 15  1  0     0  0
  2 16  1  0     0  0
  2 17  1  0     0  0
  2 18  1  0     0  0
  3  5  2  0     0  0
  3  7  1  0     0  0
  4  6  2  0     0  0
  4  8  1  0     0  0
  5  9  1  0     0  0
  5 19  1  0     0  0
  6 10  1  0     0  0
  6 20  1  0     0  0
  7 11  2  0     0  0
  8 12  2  0     0  0
  9 13  2  0     0  0
 10 14  2  0     0  0
 11 13  1  0     0  0
 12 14  1  0     0  0
 15 21  1  0     0  0
 16 21  1  0     0  0
 19 20  1  0     0  0
M  END
> <standard_type>
pIC50

> <# Confs.>
25

> <canonical_smiles>
CN(C)CCCN1C2=C(C=CC=C2)CCC3=C1C=CC=C3

> <standard_relation>
=

> <Publication_ID>
nan

> <predicted_activity_value>
nan

> <actual_activity_value>
-0.5314789170422551

> <Compound>
Imipramine 

> <standard_units>
uM

> hash
6039825334654182997

$$$$
26
XXILIB    08252103503D 0   0.00000     0.00000

 21 23  0     1  0            999 V2000
   -0.5571    0.0000    1.3465 N   0  0  1  0  0  3           0  0  0
    3.6264   -1.2845    0.7416 N   0  0  1  0  0  3           0  0  0
   -0.7761    1.2982    1.8756 C   0  0  0  0  0  4           0  0  0
   -0.9215   -1.2385    1.9410 C   0  0  0  0  0  4           0  0  0
   -0.3402    1.6484    3.1639 C   0  0  0  0  0  4           0  0  0
   -0.9713   -1.4639    3.3389 C   0  0  0  0  0  4           0  0  0
   -1.4403    2.2814    1.1125 C   0  0  0  0  0  4           0  0  0
   -1.3085   -2.3223    1.1093 C   0  0  0  0  0  4           0  0  0
   -0.5630    2.9445    3.6595 C   0  0  0  0  0  4           0  0  0
   -1.4152   -2.7164    3.8310 C   0  0  0  0  0  4           0  0  0
   -1.6566    3.5674    1.6101 C   0  0  0  0  0  4           0  0  0
   -1.7265   -3.5556    1.6149 C   0  0  0  0  0  4           0  0  0
   -1.2168    3.8992    2.8850 C   0  0  0  0  0  4           0  0  0
   -1.7837   -3.7526    2.9814 C   0  0  0  0  0  4           0  0  0
    0.0000    0.0000   -0.0000 C   0  0  0  0  0  4           0  0  0
    2.1628   -1.2116    0.6995 C   0  0  0  0  0  4           0  0  0
    4.0514   -2.4983    1.4424 C   0  0  0  0  0  4           0  0  0
    4.2084   -1.2553   -0.6026 C   0  0  0  0  0  4           0  0  0
    0.3734    0.6383    4.0152 C   0  0  0  0  0  4           0  0  0
   -0.5861   -0.4713    4.4166 C   0  0  0  0  0  4           0  0  0
    1.5277   -0.0000   -0.0000 C   0  0  0  0  0  4           0  0  0
  1  3  1  0     0  0
  1  4  1  0     0  0
  1 15  1  0     0  0
  2 16  1  0     0  0
  2 17  1  0     0  0
  2 18  1  0     0  0
  3  5  2  0     0  0
  3  7  1  0     0  0
  4  6  2  0     0  0
  4  8  1  0     0  0
  5  9  1  0     0  0
  5 19  1  0     0  0
  6 10  1  0     0  0
  6 20  1  0     0  0
  7 11  2  0     0  0
  8 12  2  0     0  0
  9 13  2  0     0  0
 10 14  2  0     0  0
 11 13  1  0     0  0
 12 14  1  0     0  0
 15 21  1  0     0  0
 16 21  1  0     0  0
 19 20  1  0     0  0
M  END
> <standard_type>
pIC50

> <# Confs.>
25

> <canonical_smiles>
CN(C)CCCN1C2=C(C=CC=C2)CCC3=C1C=CC=C3

> <standard_relation>
=

> <Publication_ID>
nan

> <predicted_activity_value>
nan

> <actual_activity_value>
-0.5314789170422551

> <Compound>
Imipramine 

> <standard_units>
uM

> hash
6039825334654182997

$$$$
26
XXILIB    08252103503D 0   0.00000     0.00000

 21 23  0     1  0            999 V2000
   -0.5571   -0.0000    1.3465 N   0  0  1  0  0  3           0  0  0
    1.8537    1.1240   -2.2880 N   0  0  1  0  0  3           0  0  0
    0.1429    0.8345    2.2558 C   0  0  0  0  0  4           0  0  0
   -1.7621   -0.7123    1.5932 C   0  0  0  0  0  4           0  0  0
    0.5311    0.3737    3.5244 C   0  0  0  0  0  4           0  0  0
   -2.1326   -1.2313    2.8583 C   0  0  0  0  0  4           0  0  0
    0.4734    2.1602    1.9044 C   0  0  0  0  0  4           0  0  0
   -2.6932   -0.8914    0.5364 C   0  0  0  0  0  4           0  0  0
    1.2311    1.2193    4.4018 C   0  0  0  0  0  4           0  0  0
   -3.3898   -1.8664    3.0139 C   0  0  0  0  0  4           0  0  0
    1.1706    2.9941    2.7799 C   0  0  0  0  0  4           0  0  0
   -3.9205   -1.5364    0.7071 C   0  0  0  0  0  4           0  0  0
    1.5502    2.5227    4.0299 C   0  0  0  0  0  4           0  0  0
   -4.2722   -2.0228    1.9517 C   0  0  0  0  0  4           0  0  0
    0.0000    0.0000    0.0000 C   0  0  0  0  0  4           0  0  0
    2.1628    0.0000   -1.3991 C   0  0  0  0  0  4           0  0  0
    2.2891    2.3832   -1.6797 C   0  0  0  0  0  4           0  0  0
    2.4804    0.9625   -3.6024 C   0  0  0  0  0  4           0  0  0
    0.2046   -1.0300    3.9454 C   0  0  0  0  0  4           0  0  0
   -1.2983   -1.1816    4.1219 C   0  0  0  0  0  4           0  0  0
    1.5277    0.0000    0.0000 C   0  0  0  0  0  4           0  0  0
  1  3  1  0     0  0
  1  4  1  0     0  0
  1 15  1  0     0  0
  2 16  1  0     0  0
  2 17  1  0     0  0
  2 18  1  0     0  0
  3  5  2  0     0  0
  3  7  1  0     0  0
  4  6  2  0     0  0
  4  8  1  0     0  0
  5  9  1  0     0  0
  5 19  1  0     0  0
  6 10  1  0     0  0
  6 20  1  0     0  0
  7 11  2  0     0  0
  8 12  2  0     0  0
  9 13  2  0     0  0
 10 14  2  0     0  0
 11 13  1  0     0  0
 12 14  1  0     0  0
 15 21  1  0     0  0
 16 21  1  0     0  0
 19 20  1  0     0  0
M  END
> <standard_type>
pIC50

> <# Confs.>
25

> <canonical_smiles>
CN(C)CCCN1C2=C(C=CC=C2)CCC3=C1C=CC=C3

> <standard_relation>
=

> <Publication_ID>
nan

> <predicted_activity_value>
nan

> <actual_activity_value>
-0.5314789170422551

> <Compound>
Imipramine 

> <standard_units>
uM

> hash
6039825334654182997

$$$$
26
XXILIB    08252103503D 0   0.00000     0.00000

 21 23  0     1  0            999 V2000
   -0.5571   -0.0000    1.3465 N   0  0  1  0  0  3           0  0  0
    3.6264    0.0000   -1.4832 N   0  0  1  0  0  3           0  0  0
    0.1432   -0.8345    2.2550 C   0  0  0  0  0  4           0  0  0
   -1.7633    0.7090    1.5955 C   0  0  0  0  0  4           0  0  0
    0.5377   -0.3704    3.5202 C   0  0  0  0  0  4           0  0  0
   -2.1339    1.2217    2.8634 C   0  0  0  0  0  4           0  0  0
    0.4660   -2.1627    1.9066 C   0  0  0  0  0  4           0  0  0
   -2.6956    0.8890    0.5400 C   0  0  0  0  0  4           0  0  0
    1.2413   -1.2142    4.3960 C   0  0  0  0  0  4           0  0  0
   -3.3954    1.8460    3.0242 C   0  0  0  0  0  4           0  0  0
    1.1635   -2.9962    2.7820 C   0  0  0  0  0  4           0  0  0
   -3.9260    1.5267    0.7156 C   0  0  0  0  0  4           0  0  0
    1.5532   -2.5202    4.0274 C   0  0  0  0  0  4           0  0  0
   -4.2798    2.0029    1.9638 C   0  0  0  0  0  4           0  0  0
    0.0000    0.0000    0.0000 C   0  0  0  0  0  4           0  0  0
    2.1628    0.0000   -1.3991 C   0  0  0  0  0  4           0  0  0
    4.0514    0.0000   -2.8848 C   0  0  0  0  0  4           0  0  0
    4.2084    1.1495   -0.7858 C   0  0  0  0  0  4           0  0  0
    0.2086    1.0327    3.9411 C   0  0  0  0  0  4           0  0  0
   -1.2944    1.1770    4.1242 C   0  0  0  0  0  4           0  0  0
    1.5277    0.0000    0.0000 C   0  0  0  0  0  4           0  0  0
  1  3  1  0     0  0
  1  4  1  0     0  0
  1 15  1  0     0  0
  2 16  1  0     0  0
  2 17  1  0     0  0
  2 18  1  0     0  0
  3  5  2  0     0  0
  3  7  1  0     0  0
  4  6  2  0     0  0
  4  8  1  0     0  0
  5  9  1  0     0  0
  5 19  1  0     0  0
  6 10  1  0     0  0
  6 20  1  0     0  0
  7 11  2  0     0  0
  8 12  2  0     0  0
  9 13  2  0     0  0
 10 14  2  0     0  0
 11 13  1  0     0  0
 12 14  1  0     0  0
 15 21  1  0     0  0
 16 21  1  0     0  0
 19 20  1  0     0  0
M  END
> <standard_type>
pIC50

> <# Confs.>
25

> <canonical_smiles>
CN(C)CCCN1C2=C(C=CC=C2)CCC3=C1C=CC=C3

> <standard_relation>
=

> <Publication_ID>
nan

> <predicted_activity_value>
nan

> <actual_activity_value>
-0.5314789170422551

> <Compound>
Imipramine 

> <standard_units>
uM

> hash
6039825334654182997

$$$$
26
XXILIB    08252103503D 0   0.00000     0.00000

 21 23  0     1  0            999 V2000
   -0.5571    0.0000    1.3465 N   0  0  1  0  0  3           0  0  0
    3.6264   -0.0000   -1.4832 N   0  0  1  0  0  3           0  0  0
   -0.7711    1.3095    1.8634 C   0  0  0  0  0  4           0  0  0
   -0.7492   -1.2613    1.9843 C   0  0  0  0  0  4           0  0  0
   -0.3184    1.6948    3.1369 C   0  0  0  0  0  4           0  0  0
   -0.8202   -1.4473    3.3874 C   0  0  0  0  0  4           0  0  0
   -1.4397    2.2864    1.0921 C   0  0  0  0  0  4           0  0  0
   -0.9381   -2.4266    1.1929 C   0  0  0  0  0  4           0  0  0
   -0.5239    3.0081    3.6013 C   0  0  0  0  0  4           0  0  0
   -1.1236   -2.7266    3.9185 C   0  0  0  0  0  4           0  0  0
   -1.6450    3.5861    1.5609 C   0  0  0  0  0  4           0  0  0
   -1.2108   -3.6857    1.7360 C   0  0  0  0  0  4           0  0  0
   -1.1836    3.9486    2.8172 C   0  0  0  0  0  4           0  0  0
   -1.3152   -3.8349    3.1043 C   0  0  0  0  0  4           0  0  0
    0.0000    0.0000   -0.0000 C   0  0  0  0  0  4           0  0  0
    2.1628    0.0000   -1.3991 C   0  0  0  0  0  4           0  0  0
    4.1698    1.1907   -0.8259 C   0  0  0  0  0  4           0  0  0
    4.2027   -1.2066   -0.8846 C   0  0  0  0  0  4           0  0  0
    0.3872    0.7147    4.0272 C   0  0  0  0  0  4           0  0  0
   -0.5857   -0.3793    4.4328 C   0  0  0  0  0  4           0  0  0
    1.5277   -0.0000    0.0000 C   0  0  0  0  0  4           0  0  0
  1  3  1  0     0  0
  1  4  1  0     0  0
  1 15  1  0     0  0
  2 16  1  0     0  0
  2 17  1  0     0  0
  2 18  1  0     0  0
  3  5  2  0     0  0
  3  7  1  0     0  0
  4  6  2  0     0  0
  4  8  1  0     0  0
  5  9  1  0     0  0
  5 19  1  0     0  0
  6 10  1  0     0  0
  6 20  1  0     0  0
  7 11  2  0     0  0
  8 12  2  0     0  0
  9 13  2  0     0  0
 10 14  2  0     0  0
 11 13  1  0     0  0
 12 14  1  0     0  0
 15 21  1  0     0  0
 16 21  1  0     0  0
 19 20  1  0     0  0
M  END
> <standard_type>
pIC50

> <# Confs.>
25

> <canonical_smiles>
CN(C)CCCN1C2=C(C=CC=C2)CCC3=C1C=CC=C3

> <standard_relation>
=

> <Publication_ID>
nan

> <predicted_activity_value>
nan

> <actual_activity_value>
-0.5314789170422551

> <Compound>
Imipramine 

> <standard_units>
uM

> hash
6039825334654182997

$$$$
26
XXILIB    08252103503D 0   0.00000     0.00000

 21 23  0     1  0            999 V2000
   -0.5571    0.0000    1.3465 N   0  0  1  0  0  3           0  0  0
    3.6264    1.2845    0.7416 N   0  0  1  0  0  3           0  0  0
   -0.7757   -1.2982    1.8748 C   0  0  0  0  0  4           0  0  0
   -0.9250    1.2365    1.9424 C   0  0  0  0  0  4           0  0  0
   -0.3327   -1.6497    3.1601 C   0  0  0  0  0  4           0  0  0
   -0.9797    1.4571    3.3409 C   0  0  0  0  0  4           0  0  0
   -1.4476   -2.2784    1.1148 C   0  0  0  0  0  4           0  0  0
   -1.3123    2.3214    1.1123 C   0  0  0  0  0  4           0  0  0
   -0.5515   -2.9467    3.6541 C   0  0  0  0  0  4           0  0  0
   -1.4348    2.7043    3.8355 C   0  0  0  0  0  4           0  0  0
   -1.6633   -3.5643    1.6124 C   0  0  0  0  0  4           0  0  0
   -1.7383    3.5507    1.6209 C   0  0  0  0  0  4           0  0  0
   -1.2127   -3.8989    2.8830 C   0  0  0  0  0  4           0  0  0
   -1.8046    3.7417    2.9879 C   0  0  0  0  0  4           0  0  0
    0.0000    0.0000    0.0000 C   0  0  0  0  0  4           0  0  0
    2.1628    1.2116    0.6995 C   0  0  0  0  0  4           0  0  0
    4.1698    1.3106   -0.6183 C   0  0  0  0  0  4           0  0  0
    4.0884    2.4589    1.4857 C   0  0  0  0  0  4           0  0  0
    0.3786   -0.6382    4.0115 C   0  0  0  0  0  4           0  0  0
   -0.5869    0.4648    4.4169 C   0  0  0  0  0  4           0  0  0
    1.5277   -0.0000   -0.0000 C   0  0  0  0  0  4           0  0  0
  1  3  1  0     0  0
  1  4  1  0     0  0
  1 15  1  0     0  0
  2 16  1  0     0  0
  2 17  1  0     0  0
  2 18  1  0     0  0
  3  5  2  0     0  0
  3  7  1  0     0  0
  4  6  2  0     0  0
  4  8  1  0     0  0
  5  9  1  0     0  0
  5 19  1  0     0  0
  6 10  1  0     0  0
  6 20  1  0     0  0
  7 11  2  0     0  0
  8 12  2  0     0  0
  9 13  2  0     0  0
 10 14  2  0     0  0
 11 13  1  0     0  0
 12 14  1  0     0  0
 15 21  1  0     0  0
 16 21  1  0     0  0
 19 20  1  0     0  0
M  END
> <standard_type>
pIC50

> <# Confs.>
25

> <canonical_smiles>
CN(C)CCCN1C2=C(C=CC=C2)CCC3=C1C=CC=C3

> <standard_relation>
=

> <Publication_ID>
nan

> <predicted_activity_value>
nan

> <actual_activity_value>
-0.5314789170422551

> <Compound>
Imipramine 

> <standard_units>
uM

> hash
6039825334654182997

$$$$
26
XXILIB    08252103503D 0   0.00000     0.00000

 21 23  0     1  0            999 V2000
   -0.5571   -0.0000    1.3465 N   0  0  1  0  0  3           0  0  0
    3.6264    1.2845    0.7416 N   0  0  1  0  0  3           0  0  0
   -0.1760   -1.1243    2.1230 C   0  0  0  0  0  4           0  0  0
   -1.4824    1.0149    1.7118 C   0  0  0  0  0  4           0  0  0
    0.3180   -0.9783    3.4293 C   0  0  0  0  0  4           0  0  0
   -1.6989    1.4479    3.0433 C   0  0  0  0  0  4           0  0  0
   -0.2821   -2.4289    1.5971 C   0  0  0  0  0  4           0  0  0
   -2.2874    1.6167    0.7089 C   0  0  0  0  0  4           0  0  0
    0.7000   -2.1081    4.1720 C   0  0  0  0  0  4           0  0  0
   -2.7016    2.4123    3.3113 C   0  0  0  0  0  4           0  0  0
    0.0974   -3.5470    2.3409 C   0  0  0  0  0  4           0  0  0
   -3.2566    2.5818    0.9926 C   0  0  0  0  0  4           0  0  0
    0.5909   -3.3857    3.6292 C   0  0  0  0  0  4           0  0  0
   -3.4683    2.9778    2.2995 C   0  0  0  0  0  4           0  0  0
    0.0000    0.0000    0.0000 C   0  0  0  0  0  4           0  0  0
    2.1628    1.2116    0.6995 C   0  0  0  0  0  4           0  0  0
    4.1698    1.3106   -0.6183 C   0  0  0  0  0  4           0  0  0
    4.0884    2.4589    1.4857 C   0  0  0  0  0  4           0  0  0
    0.4403    0.3891    4.0370 C   0  0  0  0  0  4           0  0  0
   -0.9436    0.9758    4.2694 C   0  0  0  0  0  4           0  0  0
    1.5277   -0.0000   -0.0000 C   0  0  0  0  0  4           0  0  0
  1  3  1  0     0  0
  1  4  1  0     0  0
  1 15  1  0     0  0
  2 16  1  0     0  0
  2 17  1  0     0  0
  2 18  1  0     0  0
  3  5  2  0     0  0
  3  7  1  0     0  0
  4  6  2  0     0  0
  4  8  1  0     0  0
  5  9  1  0     0  0
  5 19  1  0     0  0
  6 10  1  0     0  0
  6 20  1  0     0  0
  7 11  2  0     0  0
  8 12  2  0     0  0
  9 13  2  0     0  0
 10 14  2  0     0  0
 11 13  1  0     0  0
 12 14  1  0     0  0
 15 21  1  0     0  0
 16 21  1  0     0  0
 19 20  1  0     0  0
M  END
> <standard_type>
pIC50

> <# Confs.>
25

> <canonical_smiles>
CN(C)CCCN1C2=C(C=CC=C2)CCC3=C1C=CC=C3

> <standard_relation>
=

> <Publication_ID>
nan

> <predicted_activity_value>
nan

> <actual_activity_value>
-0.5314789170422551

> <Compound>
Imipramine 

> <standard_units>
uM

> hash
6039825334654182997

$$$$
42
XXILIB    08252103503D 0   0.00000     0.00000

 34 38  0     1  0            999 V2000
    0.7840   -4.4223   -4.6204 F   0  0  0  0  0  1           0  0  0
    7.7412    1.0363   -1.3763 F   0  0  0  0  0  1           0  0  0
   -2.4810   -5.4303    5.5857 O   0  0  0  0  0  2           0  0  0
   -0.3952   -4.5096    4.8871 N   0  0  2  0  0  3           0  0  0
   -0.4016   -6.2894    6.3037 N   0  0  0  0  0  3           0  0  0
   -0.3427   -1.1220    2.2847 N   0  0  2  0  0  3           0  0  0
    1.1201   -3.3757   -3.8536 C   0  0  0  0  0  4           0  0  0
    6.4243    0.7870   -1.3783 C   0  0  0  0  0  4           0  0  0
   -1.2576   -5.4087    5.5879 C   0  0  0  0  0  4           0  0  0
    0.9393   -4.8445    5.1843 C   0  0  0  0  0  4           0  0  0
    0.9228   -5.9365    6.0516 C   0  0  0  0  0  4           0  0  0
    1.8276   -1.1872   -2.2621 C   0  0  0  0  0  4           0  0  0
    3.6742    0.2773   -1.3781 C   0  0  0  0  0  4           0  0  0
    0.3402   -2.2254   -3.8844 C   0  0  0  0  0  4           0  0  0
    2.2436   -3.4568   -3.0392 C   0  0  0  0  0  4           0  0  0
    5.6586    1.1577   -2.4777 C   0  0  0  0  0  4           0  0  0
    5.8446    0.1616   -0.2807 C   0  0  0  0  0  4           0  0  0
    2.1305   -4.2846    4.7687 C   0  0  0  0  0  4           0  0  0
    2.0730   -6.5168    6.5410 C   0  0  0  0  0  4           0  0  0
    0.6931   -1.1349   -3.0884 C   0  0  0  0  0  4           0  0  0
    2.5955   -2.3649   -2.2450 C   0  0  0  0  0  4           0  0  0
    4.2870    0.9010   -2.4772 C   0  0  0  0  0  4           0  0  0
    4.4726   -0.0929   -0.2816 C   0  0  0  0  0  4           0  0  0
    3.3135   -4.8568    5.2515 C   0  0  0  0  0  4           0  0  0
    3.2850   -5.9607    6.1279 C   0  0  0  0  0  4           0  0  0
   -0.8157   -3.4171    4.0322 C   0  0  2  0  0  4           0  0  0
   -0.7585   -2.4094    1.7134 C   0  0  0  0  0  4           0  0  0
   -0.8937   -0.9233    3.6317 C   0  0  0  0  0  4           0  0  0
   -0.6442    0.0000    1.3933 C   0  0  0  0  0  4           0  0  0
    2.1855    0.0000   -1.4028 C   0  0  2  0  0  4           0  0  0
   -0.3012   -3.5751    2.5937 C   0  0  0  0  0  4           0  0  0
   -0.4338   -2.0344    4.5792 C   0  0  0  0  0  4           0  0  0
    0.0000    0.0000   -0.0000 C   0  0  0  0  0  4           0  0  0
    1.5368    0.0000    0.0000 C   0  0  0  0  0  4           0  0  0
  1  7  1  0     0  0
  2  8  1  0     0  0
  3  9  2  0     0  0
  4  9  1  0     0  0
  4 10  1  0     0  0
  4 26  1  0     0  0
  5  9  1  0     0  0
  5 11  1  0     0  0
  6 27  1  0     0  0
  6 28  1  0     0  0
  6 29  1  0     0  0
  7 14  2  0     0  0
  7 15  1  0     0  0
  8 16  2  0     0  0
  8 17  1  0     0  0
 10 11  1  0     0  0
 10 18  2  0     0  0
 11 19  2  0     0  0
 12 20  2  0     0  0
 12 21  1  0     0  0
 12 30  1  0     0  0
 13 22  2  0     0  0
 13 23  1  0     0  0
 13 30  1  0     0  0
 14 20  1  0     0  0
 15 21  2  0     0  0
 16 22  1  0     0  0
 17 23  2  0     0  0
 18 24  1  0     0  0
 19 25  1  0     0  0
 24 25  2  0     0  0
 26 31  1  0     0  0
 26 32  1  0     0  0
 27 31  1  0     0  0
 28 32  1  0     0  0
 29 33  1  0     0  0
 30 34  1  0     0  0
 33 34  1  0     0  0
M  END
> <standard_type>
pIC50

> <# Confs.>
25

> <canonical_smiles>
O=C1N(C2CCN(CCCC(C3=CC=C(F)C=C3)C4=CC=C(F)C=C4)CC2)C5=CC=CC=C5N1

> <standard_relation>
=

> <Publication_ID>
nan

> <predicted_activity_value>
nan

> <actual_activity_value>
1.744727494896694

> <Compound>
Pimozide

> <standard_units>
uM

> hash
467123163170552115

$$$$
42
XXILIB    08252103503D 0   0.00000     0.00000

 34 38  0     1  0            999 V2000
    0.8266    6.2420   -1.4792 F   0  0  0  0  0  1           0  0  0
    7.7504    0.6184    1.4866 F   0  0  0  0  0  1           0  0  0
   -2.4810   -5.4303    5.5857 O   0  0  0  0  0  2           0  0  0
   -0.3952   -4.5096    4.8871 N   0  0  2  0  0  3           0  0  0
   -0.4016   -6.2894    6.3037 N   0  0  0  0  0  3           0  0  0
   -0.3427   -1.1220    2.2847 N   0  0  2  0  0  3           0  0  0
    1.1473    5.0461   -0.9661 C   0  0  0  0  0  4           0  0  0
    6.4297    0.7563    1.3046 C   0  0  0  0  0  4           0  0  0
   -1.2576   -5.4087    5.5879 C   0  0  0  0  0  4           0  0  0
    0.9393   -4.8445    5.1843 C   0  0  0  0  0  4           0  0  0
    0.9228   -5.9365    6.0516 C   0  0  0  0  0  4           0  0  0
    1.8276    2.5526    0.1029 C   0  0  0  0  0  4           0  0  0
    3.6742    1.0548    0.9292 C   0  0  0  0  0  4           0  0  0
    1.4291    4.9360    0.3907 C   0  0  0  0  0  4           0  0  0
    1.1930    3.9341   -1.7989 C   0  0  0  0  0  4           0  0  0
    5.9561    1.3253    0.1280 C   0  0  0  0  0  4           0  0  0
    5.5540    0.3281    2.2954 C   0  0  0  0  0  4           0  0  0
    2.1305   -4.2846    4.7687 C   0  0  0  0  0  4           0  0  0
    2.0730   -6.5168    6.5410 C   0  0  0  0  0  4           0  0  0
    1.7665    3.6911    0.9232 C   0  0  0  0  0  4           0  0  0
    1.5319    2.6904   -1.2647 C   0  0  0  0  0  4           0  0  0
    4.5810    1.4718   -0.0589 C   0  0  0  0  0  4           0  0  0
    4.1794    0.4768    2.1071 C   0  0  0  0  0  4           0  0  0
    3.3135   -4.8568    5.2515 C   0  0  0  0  0  4           0  0  0
    3.2850   -5.9607    6.1279 C   0  0  0  0  0  4           0  0  0
   -0.8157   -3.4171    4.0322 C   0  0  2  0  0  4           0  0  0
   -0.7585   -2.4094    1.7134 C   0  0  0  0  0  4           0  0  0
   -0.8937   -0.9233    3.6317 C   0  0  0  0  0  4           0  0  0
   -0.6442    0.0000    1.3933 C   0  0  0  0  0  4           0  0  0
    2.1855    1.2148    0.7014 C   0  0  2  0  0  4           0  0  0
   -0.3012   -3.5751    2.5937 C   0  0  0  0  0  4           0  0  0
   -0.4338   -2.0344    4.5792 C   0  0  0  0  0  4           0  0  0
    0.0000    0.0000   -0.0000 C   0  0  0  0  0  4           0  0  0
    1.5368    0.0000    0.0000 C   0  0  0  0  0  4           0  0  0
  1  7  1  0     0  0
  2  8  1  0     0  0
  3  9  2  0     0  0
  4  9  1  0     0  0
  4 10  1  0     0  0
  4 26  1  0     0  0
  5  9  1  0     0  0
  5 11  1  0     0  0
  6 27  1  0     0  0
  6 28  1  0     0  0
  6 29  1  0     0  0
  7 14  2  0     0  0
  7 15  1  0     0  0
  8 16  2  0     0  0
  8 17  1  0     0  0
 10 11  1  0     0  0
 10 18  2  0     0  0
 11 19  2  0     0  0
 12 20  2  0     0  0
 12 21  1  0     0  0
 12 30  1  0     0  0
 13 22  2  0     0  0
 13 23  1  0     0  0
 13 30  1  0     0  0
 14 20  1  0     0  0
 15 21  2  0     0  0
 16 22  1  0     0  0
 17 23  2  0     0  0
 18 24  1  0     0  0
 19 25  1  0     0  0
 24 25  2  0     0  0
 26 31  1  0     0  0
 26 32  1  0     0  0
 27 31  1  0     0  0
 28 32  1  0     0  0
 29 33  1  0     0  0
 30 34  1  0     0  0
 33 34  1  0     0  0
M  END
> <standard_type>
pIC50

> <# Confs.>
25

> <canonical_smiles>
O=C1N(C2CCN(CCCC(C3=CC=C(F)C=C3)C4=CC=C(F)C=C4)CC2)C5=CC=CC=C5N1

> <standard_relation>
=

> <Publication_ID>
nan

> <predicted_activity_value>
nan

> <actual_activity_value>
1.744727494896694

> <Compound>
Pimozide

> <standard_units>
uM

> hash
467123163170552115

$$$$
42
XXILIB    08252103503D 0   0.00000     0.00000

 34 38  0     1  0            999 V2000
    0.7840   -4.4223   -4.6204 F   0  0  0  0  0  1           0  0  0
    7.7412    1.0363   -1.3763 F   0  0  0  0  0  1           0  0  0
    1.9812   -4.3437    4.7793 O   0  0  0  0  0  2           0  0  0
   -0.3952   -4.5096    4.8871 N   0  0  2  0  0  3           0  0  0
    0.8732   -6.0081    6.0361 N   0  0  0  0  0  3           0  0  0
   -0.3427   -1.1220    2.2847 N   0  0  2  0  0  3           0  0  0
    1.1201   -3.3757   -3.8536 C   0  0  0  0  0  4           0  0  0
    6.4243    0.7870   -1.3783 C   0  0  0  0  0  4           0  0  0
    0.9551   -4.8777    5.1780 C   0  0  0  0  0  4           0  0  0
   -1.2569   -5.4028    5.5510 C   0  0  0  0  0  4           0  0  0
   -0.4688   -6.3152    6.2522 C   0  0  0  0  0  4           0  0  0
    1.8276   -1.1872   -2.2621 C   0  0  0  0  0  4           0  0  0
    3.6742    0.2773   -1.3781 C   0  0  0  0  0  4           0  0  0
    0.3402   -2.2254   -3.8844 C   0  0  0  0  0  4           0  0  0
    2.2436   -3.4568   -3.0392 C   0  0  0  0  0  4           0  0  0
    5.6586    1.1577   -2.4777 C   0  0  0  0  0  4           0  0  0
    5.8446    0.1616   -0.2807 C   0  0  0  0  0  4           0  0  0
   -2.6346   -5.4781    5.5874 C   0  0  0  0  0  4           0  0  0
   -1.0041   -7.3321    7.0127 C   0  0  0  0  0  4           0  0  0
    0.6931   -1.1349   -3.0884 C   0  0  0  0  0  4           0  0  0
    2.5955   -2.3649   -2.2450 C   0  0  0  0  0  4           0  0  0
    4.2870    0.9010   -2.4772 C   0  0  0  0  0  4           0  0  0
    4.4726   -0.0929   -0.2816 C   0  0  0  0  0  4           0  0  0
   -3.2030   -6.5025    6.3540 C   0  0  0  0  0  4           0  0  0
   -2.3967   -7.4193    7.0589 C   0  0  0  0  0  4           0  0  0
   -0.8157   -3.4171    4.0322 C   0  0  2  0  0  4           0  0  0
   -0.7585   -2.4094    1.7134 C   0  0  0  0  0  4           0  0  0
   -0.8937   -0.9233    3.6317 C   0  0  0  0  0  4           0  0  0
   -0.6442    0.0000    1.3933 C   0  0  0  0  0  4           0  0  0
    2.1855    0.0000   -1.4028 C   0  0  2  0  0  4           0  0  0
   -0.3012   -3.5751    2.5937 C   0  0  0  0  0  4           0  0  0
   -0.4338   -2.0344    4.5792 C   0  0  0  0  0  4           0  0  0
    0.0000    0.0000   -0.0000 C   0  0  0  0  0  4           0  0  0
    1.5368    0.0000    0.0000 C   0  0  0  0  0  4           0  0  0
  1  7  1  0     0  0
  2  8  1  0     0  0
  3  9  2  0     0  0
  4  9  1  0     0  0
  4 10  1  0     0  0
  4 26  1  0     0  0
  5  9  1  0     0  0
  5 11  1  0     0  0
  6 27  1  0     0  0
  6 28  1  0     0  0
  6 29  1  0     0  0
  7 14  2  0     0  0
  7 15  1  0     0  0
  8 16  2  0     0  0
  8 17  1  0     0  0
 10 11  1  0     0  0
 10 18  2  0     0  0
 11 19  2  0     0  0
 12 20  2  0     0  0
 12 21  1  0     0  0
 12 30  1  0     0  0
 13 22  2  0     0  0
 13 23  1  0     0  0
 13 30  1  0     0  0
 14 20  1  0     0  0
 15 21  2  0     0  0
 16 22  1  0     0  0
 17 23  2  0     0  0
 18 24  1  0     0  0
 19 25  1  0     0  0
 24 25  2  0     0  0
 26 31  1  0     0  0
 26 32  1  0     0  0
 27 31  1  0     0  0
 28 32  1  0     0  0
 29 33  1  0     0  0
 30 34  1  0     0  0
 33 34  1  0     0  0
M  END
> <standard_type>
pIC50

> <# Confs.>
25

> <canonical_smiles>
O=C1N(C2CCN(CCCC(C3=CC=C(F)C=C3)C4=CC=C(F)C=C4)CC2)C5=CC=CC=C5N1

> <standard_relation>
=

> <Publication_ID>
nan

> <predicted_activity_value>
nan

> <actual_activity_value>
1.744727494896694

> <Compound>
Pimozide

> <standard_units>
uM

> hash
467123163170552115

$$$$
42
XXILIB    08252103503D 0   0.00000     0.00000

 34 38  0     1  0            999 V2000
    0.8266    6.2420   -1.4792 F   0  0  0  0  0  1           0  0  0
    7.7504    0.6184    1.4866 F   0  0  0  0  0  1           0  0  0
    1.9812   -4.3437    4.7793 O   0  0  0  0  0  2           0  0  0
   -0.3952   -4.5096    4.8871 N   0  0  2  0  0  3           0  0  0
    0.8732   -6.0081    6.0361 N   0  0  0  0  0  3           0  0  0
   -0.3427   -1.1220    2.2847 N   0  0  2  0  0  3           0  0  0
    1.1473    5.0461   -0.9661 C   0  0  0  0  0  4           0  0  0
    6.4297    0.7563    1.3046 C   0  0  0  0  0  4           0  0  0
    0.9551   -4.8777    5.1780 C   0  0  0  0  0  4           0  0  0
   -1.2569   -5.4028    5.5510 C   0  0  0  0  0  4           0  0  0
   -0.4688   -6.3152    6.2522 C   0  0  0  0  0  4           0  0  0
    1.8276    2.5526    0.1029 C   0  0  0  0  0  4           0  0  0
    3.6742    1.0548    0.9292 C   0  0  0  0  0  4           0  0  0
    1.4291    4.9360    0.3907 C   0  0  0  0  0  4           0  0  0
    1.1930    3.9341   -1.7989 C   0  0  0  0  0  4           0  0  0
    5.9561    1.3253    0.1280 C   0  0  0  0  0  4           0  0  0
    5.5540    0.3281    2.2954 C   0  0  0  0  0  4           0  0  0
   -2.6346   -5.4781    5.5874 C   0  0  0  0  0  4           0  0  0
   -1.0041   -7.3321    7.0127 C   0  0  0  0  0  4           0  0  0
    1.7665    3.6911    0.9232 C   0  0  0  0  0  4           0  0  0
    1.5319    2.6904   -1.2647 C   0  0  0  0  0  4           0  0  0
    4.5810    1.4718   -0.0589 C   0  0  0  0  0  4           0  0  0
    4.1794    0.4768    2.1071 C   0  0  0  0  0  4           0  0  0
   -3.2030   -6.5025    6.3540 C   0  0  0  0  0  4           0  0  0
   -2.3967   -7.4193    7.0589 C   0  0  0  0  0  4           0  0  0
   -0.8157   -3.4171    4.0322 C   0  0  2  0  0  4           0  0  0
   -0.7585   -2.4094    1.7134 C   0  0  0  0  0  4           0  0  0
   -0.8937   -0.9233    3.6317 C   0  0  0  0  0  4           0  0  0
   -0.6442    0.0000    1.3933 C   0  0  0  0  0  4           0  0  0
    2.1855    1.2148    0.7014 C   0  0  2  0  0  4           0  0  0
   -0.3012   -3.5751    2.5937 C   0  0  0  0  0  4           0  0  0
   -0.4338   -2.0344    4.5792 C   0  0  0  0  0  4           0  0  0
    0.0000    0.0000   -0.0000 C   0  0  0  0  0  4           0  0  0
    1.5368    0.0000    0.0000 C   0  0  0  0  0  4           0  0  0
  1  7  1  0     0  0
  2  8  1  0     0  0
  3  9  2  0     0  0
  4  9  1  0     0  0
  4 10  1  0     0  0
  4 26  1  0     0  0
  5  9  1  0     0  0
  5 11  1  0     0  0
  6 27  1  0     0  0
  6 28  1  0     0  0
  6 29  1  0     0  0
  7 14  2  0     0  0
  7 15  1  0     0  0
  8 16  2  0     0  0
  8 17  1  0     0  0
 10 11  1  0     0  0
 10 18  2  0     0  0
 11 19  2  0     0  0
 12 20  2  0     0  0
 12 21  1  0     0  0
 12 30  1  0     0  0
 13 22  2  0     0  0
 13 23  1  0     0  0
 13 30  1  0     0  0
 14 20  1  0     0  0
 15 21  2  0     0  0
 16 22  1  0     0  0
 17 23  2  0     0  0
 18 24  1  0     0  0
 19 25  1  0     0  0
 24 25  2  0     0  0
 26 31  1  0     0  0
 26 32  1  0     0  0
 27 31  1  0     0  0
 28 32  1  0     0  0
 29 33  1  0     0  0
 30 34  1  0     0  0
 33 34  1  0     0  0
M  END
> <standard_type>
pIC50

> <# Confs.>
25

> <canonical_smiles>
O=C1N(C2CCN(CCCC(C3=CC=C(F)C=C3)C4=CC=C(F)C=C4)CC2)C5=CC=CC=C5N1

> <standard_relation>
=

> <Publication_ID>
nan

> <predicted_activity_value>
nan

> <actual_activity_value>
1.744727494896694

> <Compound>
Pimozide

> <standard_units>
uM

> hash
467123163170552115

$$$$
42
XXILIB    08252103503D 0   0.00000     0.00000

 34 38  0     1  0            999 V2000
    0.8266   -4.4021   -4.6661 F   0  0  0  0  0  1           0  0  0
    7.7504    0.9782   -1.2788 F   0  0  0  0  0  1           0  0  0
   -2.4810   -5.4303    5.5857 O   0  0  0  0  0  2           0  0  0
   -0.3952   -4.5096    4.8871 N   0  0  2  0  0  3           0  0  0
   -0.4016   -6.2894    6.3037 N   0  0  0  0  0  3           0  0  0
   -0.3427   -1.1220    2.2847 N   0  0  2  0  0  3           0  0  0
    1.1473   -3.3597   -3.8870 C   0  0  0  0  0  4           0  0  0
    6.4297    0.7516   -1.3073 C   0  0  0  0  0  4           0  0  0
   -1.2576   -5.4087    5.5879 C   0  0  0  0  0  4           0  0  0
    0.9393   -4.8445    5.1843 C   0  0  0  0  0  4           0  0  0
    0.9228   -5.9365    6.0516 C   0  0  0  0  0  4           0  0  0
    1.8276   -1.1872   -2.2621 C   0  0  0  0  0  4           0  0  0
    3.6742    0.2773   -1.3781 C   0  0  0  0  0  4           0  0  0
    1.4291   -2.1297   -4.4700 C   0  0  0  0  0  4           0  0  0
    1.1930   -3.5250   -2.5076 C   0  0  0  0  0  4           0  0  0
    5.9561   -0.5518   -1.2117 C   0  0  0  0  0  4           0  0  0
    5.5540    1.8238   -1.4319 C   0  0  0  0  0  4           0  0  0
    2.1305   -4.2846    4.7687 C   0  0  0  0  0  4           0  0  0
    2.0730   -6.5168    6.5410 C   0  0  0  0  0  4           0  0  0
    1.7665   -1.0460   -3.6581 C   0  0  0  0  0  4           0  0  0
    1.5319   -2.4405   -1.6976 C   0  0  0  0  0  4           0  0  0
    4.5810   -0.7869   -1.2451 C   0  0  0  0  0  4           0  0  0
    4.1794    1.5865   -1.4665 C   0  0  0  0  0  4           0  0  0
    3.3135   -4.8568    5.2515 C   0  0  0  0  0  4           0  0  0
    3.2850   -5.9607    6.1279 C   0  0  0  0  0  4           0  0  0
   -0.8157   -3.4171    4.0322 C   0  0  2  0  0  4           0  0  0
   -0.7585   -2.4094    1.7134 C   0  0  0  0  0  4           0  0  0
   -0.8937   -0.9233    3.6317 C   0  0  0  0  0  4           0  0  0
   -0.6442    0.0000    1.3933 C   0  0  0  0  0  4           0  0  0
    2.1855    0.0000   -1.4028 C   0  0  2  0  0  4           0  0  0
   -0.3012   -3.5751    2.5937 C   0  0  0  0  0  4           0  0  0
   -0.4338   -2.0344    4.5792 C   0  0  0  0  0  4           0  0  0
    0.0000    0.0000   -0.0000 C   0  0  0  0  0  4           0  0  0
    1.5368    0.0000    0.0000 C   0  0  0  0  0  4           0  0  0
  1  7  1  0     0  0
  2  8  1  0     0  0
  3  9  2  0     0  0
  4  9  1  0     0  0
  4 10  1  0     0  0
  4 26  1  0     0  0
  5  9  1  0     0  0
  5 11  1  0     0  0
  6 27  1  0     0  0
  6 28  1  0     0  0
  6 29  1  0     0  0
  7 14  2  0     0  0
  7 15  1  0     0  0
  8 16  2  0     0  0
  8 17  1  0     0  0
 10 11  1  0     0  0
 10 18  2  0     0  0
 11 19  2  0     0  0
 12 20  2  0     0  0
 12 21  1  0     0  0
 12 30  1  0     0  0
 13 22  2  0     0  0
 13 23  1  0     0  0
 13 30  1  0     0  0
 14 20  1  0     0  0
 15 21  2  0     0  0
 16 22  1  0     0  0
 17 23  2  0     0  0
 18 24  1  0     0  0
 19 25  1  0     0  0
 24 25  2  0     0  0
 26 31  1  0     0  0
 26 32  1  0     0  0
 27 31  1  0     0  0
 28 32  1  0     0  0
 29 33  1  0     0  0
 30 34  1  0     0  0
 33 34  1  0     0  0
M  END
> <standard_type>
pIC50

> <# Confs.>
25

> <canonical_smiles>
O=C1N(C2CCN(CCCC(C3=CC=C(F)C=C3)C4=CC=C(F)C=C4)CC2)C5=CC=CC=C5N1

> <standard_relation>
=

> <Publication_ID>
nan

> <predicted_activity_value>
nan

> <actual_activity_value>
1.744727494896694

> <Compound>
Pimozide

> <standard_units>
uM

> hash
467123163170552115

$$$$
42
XXILIB    08252103503D 0   0.00000     0.00000

 34 38  0     1  0            999 V2000
    0.7840   -4.4223   -4.6204 F   0  0  0  0  0  1           0  0  0
    7.7412    1.0363   -1.3763 F   0  0  0  0  0  1           0  0  0
   -2.4202    5.7562    5.1548 O   0  0  0  0  0  2           0  0  0
   -0.3869    4.5542    4.8281 N   0  0  2  0  0  3           0  0  0
   -0.3807    6.4014    6.1557 N   0  0  0  0  0  3           0  0  0
   -0.3427    1.1220    2.2847 N   0  0  2  0  0  3           0  0  0
    1.1201   -3.3757   -3.8536 C   0  0  0  0  0  4           0  0  0
    6.4243    0.7870   -1.3783 C   0  0  0  0  0  4           0  0  0
   -1.2241    5.5884    5.3504 C   0  0  0  0  0  4           0  0  0
    0.9221    4.7519    5.3066 C   0  0  0  0  0  4           0  0  0
    0.9133    5.8853    6.1193 C   0  0  0  0  0  4           0  0  0
    1.8276   -1.1872   -2.2621 C   0  0  0  0  0  4           0  0  0
    3.6742    0.2773   -1.3781 C   0  0  0  0  0  4           0  0  0
    0.3402   -2.2254   -3.8844 C   0  0  0  0  0  4           0  0  0
    2.2436   -3.4568   -3.0392 C   0  0  0  0  0  4           0  0  0
    5.6586    1.1577   -2.4777 C   0  0  0  0  0  4           0  0  0
    5.8446    0.1616   -0.2807 C   0  0  0  0  0  4           0  0  0
    2.0849    4.0401    5.0919 C   0  0  0  0  0  4           0  0  0
    2.0436    6.3593    6.7491 C   0  0  0  0  0  4           0  0  0
    0.6931   -1.1349   -3.0884 C   0  0  0  0  0  4           0  0  0
    2.5955   -2.3649   -2.2450 C   0  0  0  0  0  4           0  0  0
    4.2870    0.9010   -2.4772 C   0  0  0  0  0  4           0  0  0
    4.4726   -0.0929   -0.2816 C   0  0  0  0  0  4           0  0  0
    3.2472    4.5012    5.7215 C   0  0  0  0  0  4           0  0  0
    3.2267    5.6481    6.5411 C   0  0  0  0  0  4           0  0  0
   -0.8019    3.4911    3.9344 C   0  0  2  0  0  4           0  0  0
   -1.0217    0.9967    3.5808 C   0  0  0  0  0  4           0  0  0
   -0.6148    2.4200    1.6533 C   0  0  0  0  0  4           0  0  0
   -0.6442    0.0000    1.3933 C   0  0  0  0  0  4           0  0  0
    2.1855    0.0000   -1.4028 C   0  0  2  0  0  4           0  0  0
   -0.5762    2.0995    4.5441 C   0  0  0  0  0  4           0  0  0
   -0.1474    3.5711    2.5480 C   0  0  0  0  0  4           0  0  0
    0.0000   -0.0000    0.0000 C   0  0  0  0  0  4           0  0  0
    1.5368    0.0000    0.0000 C   0  0  0  0  0  4           0  0  0
  1  7  1  0     0  0
  2  8  1  0     0  0
  3  9  2  0     0  0
  4  9  1  0     0  0
  4 10  1  0     0  0
  4 26  1  0     0  0
  5  9  1  0     0  0
  5 11  1  0     0  0
  6 27  1  0     0  0
  6 28  1  0     0  0
  6 29  1  0     0  0
  7 14  2  0     0  0
  7 15  1  0     0  0
  8 16  2  0     0  0
  8 17  1  0     0  0
 10 11  1  0     0  0
 10 18  2  0     0  0
 11 19  2  0     0  0
 12 20  2  0     0  0
 12 21  1  0     0  0
 12 30  1  0     0  0
 13 22  2  0     0  0
 13 23  1  0     0  0
 13 30  1  0     0  0
 14 20  1  0     0  0
 15 21  2  0     0  0
 16 22  1  0     0  0
 17 23  2  0     0  0
 18 24  1  0     0  0
 19 25  1  0     0  0
 24 25  2  0     0  0
 26 31  1  0     0  0
 26 32  1  0     0  0
 27 31  1  0     0  0
 28 32  1  0     0  0
 29 33  1  0     0  0
 30 34  1  0     0  0
 33 34  1  0     0  0
M  END
> <standard_type>
pIC50

> <# Confs.>
25

> <canonical_smiles>
O=C1N(C2CCN(CCCC(C3=CC=C(F)C=C3)C4=CC=C(F)C=C4)CC2)C5=CC=CC=C5N1

> <standard_relation>
=

> <Publication_ID>
nan

> <predicted_activity_value>
nan

> <actual_activity_value>
1.744727494896694

> <Compound>
Pimozide

> <standard_units>
uM

> hash
467123163170552115

$$$$
42
XXILIB    08252103503D 0   0.00000     0.00000

 34 38  0     1  0            999 V2000
    0.8266   -4.4021   -4.6661 F   0  0  0  0  0  1           0  0  0
    7.7504    0.9782   -1.2788 F   0  0  0  0  0  1           0  0  0
    1.9812   -4.3437    4.7793 O   0  0  0  0  0  2           0  0  0
   -0.3952   -4.5096    4.8871 N   0  0  2  0  0  3           0  0  0
    0.8732   -6.0081    6.0361 N   0  0  0  0  0  3           0  0  0
   -0.3427   -1.1220    2.2847 N   0  0  2  0  0  3           0  0  0
    1.1473   -3.3597   -3.8870 C   0  0  0  0  0  4           0  0  0
    6.4297    0.7516   -1.3073 C   0  0  0  0  0  4           0  0  0
    0.9551   -4.8777    5.1780 C   0  0  0  0  0  4           0  0  0
   -1.2569   -5.4028    5.5510 C   0  0  0  0  0  4           0  0  0
   -0.4688   -6.3152    6.2522 C   0  0  0  0  0  4           0  0  0
    1.8276   -1.1872   -2.2621 C   0  0  0  0  0  4           0  0  0
    3.6742    0.2773   -1.3781 C   0  0  0  0  0  4           0  0  0
    1.4291   -2.1297   -4.4700 C   0  0  0  0  0  4           0  0  0
    1.1930   -3.5250   -2.5076 C   0  0  0  0  0  4           0  0  0
    5.9561   -0.5518   -1.2117 C   0  0  0  0  0  4           0  0  0
    5.5540    1.8238   -1.4319 C   0  0  0  0  0  4           0  0  0
   -2.6346   -5.4781    5.5874 C   0  0  0  0  0  4           0  0  0
   -1.0041   -7.3321    7.0127 C   0  0  0  0  0  4           0  0  0
    1.7665   -1.0460   -3.6581 C   0  0  0  0  0  4           0  0  0
    1.5319   -2.4405   -1.6976 C   0  0  0  0  0  4           0  0  0
    4.5810   -0.7869   -1.2451 C   0  0  0  0  0  4           0  0  0
    4.1794    1.5865   -1.4665 C   0  0  0  0  0  4           0  0  0
   -3.2030   -6.5025    6.3540 C   0  0  0  0  0  4           0  0  0
   -2.3967   -7.4193    7.0589 C   0  0  0  0  0  4           0  0  0
   -0.8157   -3.4171    4.0322 C   0  0  2  0  0  4           0  0  0
   -0.7585   -2.4094    1.7134 C   0  0  0  0  0  4           0  0  0
   -0.8937   -0.9233    3.6317 C   0  0  0  0  0  4           0  0  0
   -0.6442    0.0000    1.3933 C   0  0  0  0  0  4           0  0  0
    2.1855    0.0000   -1.4028 C   0  0  2  0  0  4           0  0  0
   -0.3012   -3.5751    2.5937 C   0  0  0  0  0  4           0  0  0
   -0.4338   -2.0344    4.5792 C   0  0  0  0  0  4           0  0  0
    0.0000    0.0000   -0.0000 C   0  0  0  0  0  4           0  0  0
    1.5368    0.0000    0.0000 C   0  0  0  0  0  4           0  0  0
  1  7  1  0     0  0
  2  8  1  0     0  0
  3  9  2  0     0  0
  4  9  1  0     0  0
  4 10  1  0     0  0
  4 26  1  0     0  0
  5  9  1  0     0  0
  5 11  1  0     0  0
  6 27  1  0     0  0
  6 28  1  0     0  0
  6 29  1  0     0  0
  7 14  2  0     0  0
  7 15  1  0     0  0
  8 16  2  0     0  0
  8 17  1  0     0  0
 10 11  1  0     0  0
 10 18  2  0     0  0
 11 19  2  0     0  0
 12 20  2  0     0  0
 12 21  1  0     0  0
 12 30  1  0     0  0
 13 22  2  0     0  0
 13 23  1  0     0  0
 13 30  1  0     0  0
 14 20  1  0     0  0
 15 21  2  0     0  0
 16 22  1  0     0  0
 17 23  2  0     0  0
 18 24  1  0     0  0
 19 25  1  0     0  0
 24 25  2  0     0  0
 26 31  1  0     0  0
 26 32  1  0     0  0
 27 31  1  0     0  0
 28 32  1  0     0  0
 29 33  1  0     0  0
 30 34  1  0     0  0
 33 34  1  0     0  0
M  END
> <standard_type>
pIC50

> <# Confs.>
25

> <canonical_smiles>
O=C1N(C2CCN(CCCC(C3=CC=C(F)C=C3)C4=CC=C(F)C=C4)CC2)C5=CC=CC=C5N1

> <standard_relation>
=

> <Publication_ID>
nan

> <predicted_activity_value>
nan

> <actual_activity_value>
1.744727494896694

> <Compound>
Pimozide

> <standard_units>
uM

> hash
467123163170552115

$$$$
42
XXILIB    08252103503D 0   0.00000     0.00000

 34 38  0     1  0            999 V2000
    0.8266   -4.4021   -4.6661 F   0  0  0  0  0  1           0  0  0
    7.7504    0.9782   -1.2788 F   0  0  0  0  0  1           0  0  0
   -2.4202    5.7562    5.1548 O   0  0  0  0  0  2           0  0  0
   -0.3869    4.5542    4.8281 N   0  0  2  0  0  3           0  0  0
   -0.3807    6.4014    6.1557 N   0  0  0  0  0  3           0  0  0
   -0.3427    1.1220    2.2847 N   0  0  2  0  0  3           0  0  0
    1.1473   -3.3597   -3.8870 C   0  0  0  0  0  4           0  0  0
    6.4297    0.7516   -1.3073 C   0  0  0  0  0  4           0  0  0
   -1.2241    5.5884    5.3504 C   0  0  0  0  0  4           0  0  0
    0.9221    4.7519    5.3066 C   0  0  0  0  0  4           0  0  0
    0.9133    5.8853    6.1193 C   0  0  0  0  0  4           0  0  0
    1.8276   -1.1872   -2.2621 C   0  0  0  0  0  4           0  0  0
    3.6742    0.2773   -1.3781 C   0  0  0  0  0  4           0  0  0
    1.4291   -2.1297   -4.4700 C   0  0  0  0  0  4           0  0  0
    1.1930   -3.5250   -2.5076 C   0  0  0  0  0  4           0  0  0
    5.9561   -0.5518   -1.2117 C   0  0  0  0  0  4           0  0  0
    5.5540    1.8238   -1.4319 C   0  0  0  0  0  4           0  0  0
    2.0849    4.0401    5.0919 C   0  0  0  0  0  4           0  0  0
    2.0436    6.3593    6.7491 C   0  0  0  0  0  4           0  0  0
    1.7665   -1.0460   -3.6581 C   0  0  0  0  0  4           0  0  0
    1.5319   -2.4405   -1.6976 C   0  0  0  0  0  4           0  0  0
    4.5810   -0.7869   -1.2451 C   0  0  0  0  0  4           0  0  0
    4.1794    1.5865   -1.4665 C   0  0  0  0  0  4           0  0  0
    3.2472    4.5012    5.7215 C   0  0  0  0  0  4           0  0  0
    3.2267    5.6481    6.5411 C   0  0  0  0  0  4           0  0  0
   -0.8019    3.4911    3.9344 C   0  0  2  0  0  4           0  0  0
   -1.0217    0.9967    3.5808 C   0  0  0  0  0  4           0  0  0
   -0.6148    2.4200    1.6533 C   0  0  0  0  0  4           0  0  0
   -0.6442    0.0000    1.3933 C   0  0  0  0  0  4           0  0  0
    2.1855    0.0000   -1.4028 C   0  0  2  0  0  4           0  0  0
   -0.5762    2.0995    4.5441 C   0  0  0  0  0  4           0  0  0
   -0.1474    3.5711    2.5480 C   0  0  0  0  0  4           0  0  0
    0.0000   -0.0000    0.0000 C   0  0  0  0  0  4           0  0  0
    1.5368    0.0000    0.0000 C   0  0  0  0  0  4           0  0  0
  1  7  1  0     0  0
  2  8  1  0     0  0
  3  9  2  0     0  0
  4  9  1  0     0  0
  4 10  1  0     0  0
  4 26  1  0     0  0
  5  9  1  0     0  0
  5 11  1  0     0  0
  6 27  1  0     0  0
  6 28  1  0     0  0
  6 29  1  0     0  0
  7 14  2  0     0  0
  7 15  1  0     0  0
  8 16  2  0     0  0
  8 17  1  0     0  0
 10 11  1  0     0  0
 10 18  2  0     0  0
 11 19  2  0     0  0
 12 20  2  0     0  0
 12 21  1  0     0  0
 12 30  1  0     0  0
 13 22  2  0     0  0
 13 23  1  0     0  0
 13 30  1  0     0  0
 14 20  1  0     0  0
 15 21  2  0     0  0
 16 22  1  0     0  0
 17 23  2  0     0  0
 18 24  1  0     0  0
 19 25  1  0     0  0
 24 25  2  0     0  0
 26 31  1  0     0  0
 26 32  1  0     0  0
 27 31  1  0     0  0
 28 32  1  0     0  0
 29 33  1  0     0  0
 30 34  1  0     0  0
 33 34  1  0     0  0
M  END
> <standard_type>
pIC50

> <# Confs.>
25

> <canonical_smiles>
O=C1N(C2CCN(CCCC(C3=CC=C(F)C=C3)C4=CC=C(F)C=C4)CC2)C5=CC=CC=C5N1

> <standard_relation>
=

> <Publication_ID>
nan

> <predicted_activity_value>
nan

> <actual_activity_value>
1.744727494896694

> <Compound>
Pimozide

> <standard_units>
uM

> hash
467123163170552115

$$$$
42
XXILIB    08252103503D 0   0.00000     0.00000

 34 38  0     1  0            999 V2000
    0.7840   -4.4223   -4.6204 F   0  0  0  0  0  1           0  0  0
    7.7412    1.0363   -1.3763 F   0  0  0  0  0  1           0  0  0
    1.9333    4.0867    5.1189 O   0  0  0  0  0  2           0  0  0
   -0.3869    4.5542    4.8281 N   0  0  2  0  0  3           0  0  0
    0.8526    5.8973    6.1826 N   0  0  0  0  0  3           0  0  0
   -0.3427    1.1220    2.2847 N   0  0  2  0  0  3           0  0  0
    1.1201   -3.3757   -3.8536 C   0  0  0  0  0  4           0  0  0
    6.4243    0.7870   -1.3783 C   0  0  0  0  0  4           0  0  0
    0.9319    4.7532    5.3426 C   0  0  0  0  0  4           0  0  0
   -1.2291    5.5516    5.3544 C   0  0  0  0  0  4           0  0  0
   -0.4588    6.3688    6.1814 C   0  0  0  0  0  4           0  0  0
    1.8276   -1.1872   -2.2621 C   0  0  0  0  0  4           0  0  0
    3.6742    0.2773   -1.3781 C   0  0  0  0  0  4           0  0  0
    0.3402   -2.2254   -3.8844 C   0  0  0  0  0  4           0  0  0
    2.2436   -3.4568   -3.0392 C   0  0  0  0  0  4           0  0  0
    5.6586    1.1577   -2.4777 C   0  0  0  0  0  4           0  0  0
    5.8446    0.1616   -0.2807 C   0  0  0  0  0  4           0  0  0
   -2.5761    5.7920    5.1727 C   0  0  0  0  0  4           0  0  0
   -0.9824    7.4490    6.8583 C   0  0  0  0  0  4           0  0  0
    0.6931   -1.1349   -3.0884 C   0  0  0  0  0  4           0  0  0
    2.5955   -2.3649   -2.2450 C   0  0  0  0  0  4           0  0  0
    4.2870    0.9010   -2.4772 C   0  0  0  0  0  4           0  0  0
    4.4726   -0.0929   -0.2816 C   0  0  0  0  0  4           0  0  0
   -3.1319    6.8844    5.8491 C   0  0  0  0  0  4           0  0  0
   -2.3436    7.7039    6.6826 C   0  0  0  0  0  4           0  0  0
   -0.8019    3.4911    3.9344 C   0  0  2  0  0  4           0  0  0
   -1.0217    0.9967    3.5808 C   0  0  0  0  0  4           0  0  0
   -0.6148    2.4200    1.6533 C   0  0  0  0  0  4           0  0  0
   -0.6442    0.0000    1.3933 C   0  0  0  0  0  4           0  0  0
    2.1855    0.0000   -1.4028 C   0  0  2  0  0  4           0  0  0
   -0.5762    2.0995    4.5441 C   0  0  0  0  0  4           0  0  0
   -0.1474    3.5711    2.5480 C   0  0  0  0  0  4           0  0  0
    0.0000   -0.0000    0.0000 C   0  0  0  0  0  4           0  0  0
    1.5368    0.0000    0.0000 C   0  0  0  0  0  4           0  0  0
  1  7  1  0     0  0
  2  8  1  0     0  0
  3  9  2  0     0  0
  4  9  1  0     0  0
  4 10  1  0     0  0
  4 26  1  0     0  0
  5  9  1  0     0  0
  5 11  1  0     0  0
  6 27  1  0     0  0
  6 28  1  0     0  0
  6 29  1  0     0  0
  7 14  2  0     0  0
  7 15  1  0     0  0
  8 16  2  0     0  0
  8 17  1  0     0  0
 10 11  1  0     0  0
 10 18  2  0     0  0
 11 19  2  0     0  0
 12 20  2  0     0  0
 12 21  1  0     0  0
 12 30  1  0     0  0
 13 22  2  0     0  0
 13 23  1  0     0  0
 13 30  1  0     0  0
 14 20  1  0     0  0
 15 21  2  0     0  0
 16 22  1  0     0  0
 17 23  2  0     0  0
 18 24  1  0     0  0
 19 25  1  0     0  0
 24 25  2  0     0  0
 26 31  1  0     0  0
 26 32  1  0     0  0
 27 31  1  0     0  0
 28 32  1  0     0  0
 29 33  1  0     0  0
 30 34  1  0     0  0
 33 34  1  0     0  0
M  END
> <standard_type>
pIC50

> <# Confs.>
25

> <canonical_smiles>
O=C1N(C2CCN(CCCC(C3=CC=C(F)C=C3)C4=CC=C(F)C=C4)CC2)C5=CC=CC=C5N1

> <standard_relation>
=

> <Publication_ID>
nan

> <predicted_activity_value>
nan

> <actual_activity_value>
1.744727494896694

> <Compound>
Pimozide

> <standard_units>
uM

> hash
467123163170552115

$$$$
42
XXILIB    08252103503D 0   0.00000     0.00000

 34 38  0     1  0            999 V2000
    0.7840   -4.4223   -4.6204 F   0  0  0  0  0  1           0  0  0
    7.7412    1.0363   -1.3763 F   0  0  0  0  0  1           0  0  0
   -6.8753    2.6351    3.5538 O   0  0  0  0  0  2           0  0  0
   -6.2442    0.7891    2.1826 N   0  0  2  0  0  3           0  0  0
   -8.4512    1.1692    2.5816 N   0  0  0  0  0  3           0  0  0
   -2.1066    0.0000    1.4690 N   0  0  2  0  0  3           0  0  0
    1.1201   -3.3757   -3.8536 C   0  0  0  0  0  4           0  0  0
    6.4243    0.7870   -1.3783 C   0  0  0  0  0  4           0  0  0
   -7.1481    1.6619    2.8642 C   0  0  0  0  0  4           0  0  0
   -6.9919   -0.2004    1.5170 C   0  0  0  0  0  4           0  0  0
   -8.3420    0.0433    1.7676 C   0  0  0  0  0  4           0  0  0
    1.8276   -1.1872   -2.2621 C   0  0  0  0  0  4           0  0  0
    3.6742    0.2773   -1.3781 C   0  0  0  0  0  4           0  0  0
    0.3402   -2.2254   -3.8844 C   0  0  0  0  0  4           0  0  0
    2.2436   -3.4568   -3.0392 C   0  0  0  0  0  4           0  0  0
    5.6586    1.1577   -2.4777 C   0  0  0  0  0  4           0  0  0
    5.8446    0.1616   -0.2807 C   0  0  0  0  0  4           0  0  0
   -6.5952   -1.2657    0.7340 C   0  0  0  0  0  4           0  0  0
   -9.3490   -0.7485    1.2596 C   0  0  0  0  0  4           0  0  0
    0.6931   -1.1349   -3.0884 C   0  0  0  0  0  4           0  0  0
    2.5955   -2.3649   -2.2450 C   0  0  0  0  0  4           0  0  0
    4.2870    0.9010   -2.4772 C   0  0  0  0  0  4           0  0  0
    4.4726   -0.0929   -0.2816 C   0  0  0  0  0  4           0  0  0
   -7.5998   -2.0850    0.2053 C   0  0  0  0  0  4           0  0  0
   -8.9616   -1.8291    0.4652 C   0  0  0  0  0  4           0  0  0
   -4.7978    0.8842    2.1909 C   0  0  2  0  0  4           0  0  0
   -2.6942    1.1781    0.8184 C   0  0  0  0  0  4           0  0  0
   -2.5902   -0.1558    2.8472 C   0  0  0  0  0  4           0  0  0
   -0.6442    0.0000    1.3933 C   0  0  0  0  0  4           0  0  0
    2.1855    0.0000   -1.4028 C   0  0  2  0  0  4           0  0  0
   -4.2213    1.0816    0.7811 C   0  0  0  0  0  4           0  0  0
   -4.1135   -0.3062    2.8777 C   0  0  0  0  0  4           0  0  0
    0.0000    0.0000   -0.0000 C   0  0  0  0  0  4           0  0  0
    1.5368    0.0000    0.0000 C   0  0  0  0  0  4           0  0  0
  1  7  1  0     0  0
  2  8  1  0     0  0
  3  9  2  0     0  0
  4  9  1  0     0  0
  4 10  1  0     0  0
  4 26  1  0     0  0
  5  9  1  0     0  0
  5 11  1  0     0  0
  6 27  1  0     0  0
  6 28  1  0     0  0
  6 29  1  0     0  0
  7 14  2  0     0  0
  7 15  1  0     0  0
  8 16  2  0     0  0
  8 17  1  0     0  0
 10 11  1  0     0  0
 10 18  2  0     0  0
 11 19  2  0     0  0
 12 20  2  0     0  0
 12 21  1  0     0  0
 12 30  1  0     0  0
 13 22  2  0     0  0
 13 23  1  0     0  0
 13 30  1  0     0  0
 14 20  1  0     0  0
 15 21  2  0     0  0
 16 22  1  0     0  0
 17 23  2  0     0  0
 18 24  1  0     0  0
 19 25  1  0     0  0
 24 25  2  0     0  0
 26 31  1  0     0  0
 26 32  1  0     0  0
 27 31  1  0     0  0
 28 32  1  0     0  0
 29 33  1  0     0  0
 30 34  1  0     0  0
 33 34  1  0     0  0
M  END
> <standard_type>
pIC50

> <# Confs.>
25

> <canonical_smiles>
O=C1N(C2CCN(CCCC(C3=CC=C(F)C=C3)C4=CC=C(F)C=C4)CC2)C5=CC=CC=C5N1

> <standard_relation>
=

> <Publication_ID>
nan

> <predicted_activity_value>
nan

> <actual_activity_value>
1.744727494896694

> <Compound>
Pimozide

> <standard_units>
uM

> hash
467123163170552115

$$$$
42
XXILIB    08252103503D 0   0.00000     0.00000

 34 38  0     1  0            999 V2000
    7.8309   -0.0532   -1.4274 F   0  0  0  0  0  1           0  0  0
    0.0336    3.9303   -4.8470 F   0  0  0  0  0  1           0  0  0
   -2.4810   -5.4303    5.5857 O   0  0  0  0  0  2           0  0  0
   -0.3952   -4.5096    4.8871 N   0  0  2  0  0  3           0  0  0
   -0.4016   -6.2894    6.3037 N   0  0  0  0  0  3           0  0  0
   -0.3427   -1.1220    2.2847 N   0  0  2  0  0  3           0  0  0
    6.4907   -0.0391   -1.4162 C   0  0  0  0  0  4           0  0  0
    0.5394    2.9952   -4.0309 C   0  0  0  0  0  4           0  0  0
   -1.2576   -5.4087    5.5879 C   0  0  0  0  0  4           0  0  0
    0.9393   -4.8445    5.1843 C   0  0  0  0  0  4           0  0  0
    0.9228   -5.9365    6.0516 C   0  0  0  0  0  4           0  0  0
    3.6940   -0.0000   -1.3991 C   0  0  0  0  0  4           0  0  0
    1.6023    1.0405   -2.3361 C   0  0  0  0  0  4           0  0  0
    5.7905   -0.6445   -2.4534 C   0  0  0  0  0  4           0  0  0
    5.8216    0.5808   -0.3674 C   0  0  0  0  0  4           0  0  0
    1.6210    3.3093   -3.2162 C   0  0  0  0  0  4           0  0  0
   -0.0258    1.7254   -4.0120 C   0  0  0  0  0  4           0  0  0
    2.1305   -4.2846    4.7687 C   0  0  0  0  0  4           0  0  0
    2.0730   -6.5168    6.5410 C   0  0  0  0  0  4           0  0  0
    4.3953   -0.6261   -2.4426 C   0  0  0  0  0  4           0  0  0
    4.4264    0.5993   -0.3592 C   0  0  0  0  0  4           0  0  0
    2.1491    2.3338   -2.3696 C   0  0  0  0  0  4           0  0  0
    0.5047    0.7510   -3.1657 C   0  0  0  0  0  4           0  0  0
    3.3135   -4.8568    5.2515 C   0  0  0  0  0  4           0  0  0
    3.2850   -5.9607    6.1279 C   0  0  0  0  0  4           0  0  0
   -0.8157   -3.4171    4.0322 C   0  0  2  0  0  4           0  0  0
   -0.7585   -2.4094    1.7134 C   0  0  0  0  0  4           0  0  0
   -0.8937   -0.9233    3.6317 C   0  0  0  0  0  4           0  0  0
   -0.6442    0.0000    1.3933 C   0  0  0  0  0  4           0  0  0
    2.1855    0.0000   -1.4028 C   0  0  2  0  0  4           0  0  0
   -0.3012   -3.5751    2.5937 C   0  0  0  0  0  4           0  0  0
   -0.4338   -2.0344    4.5792 C   0  0  0  0  0  4           0  0  0
    0.0000    0.0000   -0.0000 C   0  0  0  0  0  4           0  0  0
    1.5368    0.0000   -0.0000 C   0  0  0  0  0  4           0  0  0
  1  7  1  0     0  0
  2  8  1  0     0  0
  3  9  2  0     0  0
  4  9  1  0     0  0
  4 10  1  0     0  0
  4 26  1  0     0  0
  5  9  1  0     0  0
  5 11  1  0     0  0
  6 27  1  0     0  0
  6 28  1  0     0  0
  6 29  1  0     0  0
  7 14  2  0     0  0
  7 15  1  0     0  0
  8 16  2  0     0  0
  8 17  1  0     0  0
 10 11  1  0     0  0
 10 18  2  0     0  0
 11 19  2  0     0  0
 12 20  2  0     0  0
 12 21  1  0     0  0
 12 30  1  0     0  0
 13 22  2  0     0  0
 13 23  1  0     0  0
 13 30  1  0     0  0
 14 20  1  0     0  0
 15 21  2  0     0  0
 16 22  1  0     0  0
 17 23  2  0     0  0
 18 24  1  0     0  0
 19 25  1  0     0  0
 24 25  2  0     0  0
 26 31  1  0     0  0
 26 32  1  0     0  0
 27 31  1  0     0  0
 28 32  1  0     0  0
 29 33  1  0     0  0
 30 34  1  0     0  0
 33 34  1  0     0  0
M  END
> <standard_type>
pIC50

> <# Confs.>
25

> <canonical_smiles>
O=C1N(C2CCN(CCCC(C3=CC=C(F)C=C3)C4=CC=C(F)C=C4)CC2)C5=CC=CC=C5N1

> <standard_relation>
=

> <Publication_ID>
nan

> <predicted_activity_value>
nan

> <actual_activity_value>
1.744727494896694

> <Compound>
Pimozide

> <standard_units>
uM

> hash
467123163170552115

$$$$
42
XXILIB    08252103503D 0   0.00000     0.00000

 34 38  0     1  0            999 V2000
    0.7840   -4.4223   -4.6204 F   0  0  0  0  0  1           0  0  0
    7.7412    1.0363   -1.3763 F   0  0  0  0  0  1           0  0  0
   -7.1357    0.2718   -1.4745 O   0  0  0  0  0  2           0  0  0
   -6.3182    0.0372    0.7533 N   0  0  2  0  0  3           0  0  0
   -8.5643    0.0934    0.3976 N   0  0  0  0  0  3           0  0  0
   -2.1066    0.0000    1.4690 N   0  0  2  0  0  3           0  0  0
    1.1201   -3.3757   -3.8536 C   0  0  0  0  0  4           0  0  0
    6.4243    0.7870   -1.3783 C   0  0  0  0  0  4           0  0  0
   -7.3104    0.1499   -0.2696 C   0  0  0  0  0  4           0  0  0
   -6.9670   -0.0772    1.9972 C   0  0  0  0  0  4           0  0  0
   -8.3421   -0.0427    1.7667 C   0  0  0  0  0  4           0  0  0
    1.8276   -1.1872   -2.2621 C   0  0  0  0  0  4           0  0  0
    3.6742    0.2773   -1.3781 C   0  0  0  0  0  4           0  0  0
    0.3402   -2.2254   -3.8844 C   0  0  0  0  0  4           0  0  0
    2.2436   -3.4568   -3.0392 C   0  0  0  0  0  4           0  0  0
    5.6586    1.1577   -2.4777 C   0  0  0  0  0  4           0  0  0
    5.8446    0.1616   -0.2807 C   0  0  0  0  0  4           0  0  0
   -6.4635   -0.2039    3.2760 C   0  0  0  0  0  4           0  0  0
   -9.2702   -0.1313    2.7815 C   0  0  0  0  0  4           0  0  0
    0.6931   -1.1349   -3.0884 C   0  0  0  0  0  4           0  0  0
    2.5955   -2.3649   -2.2450 C   0  0  0  0  0  4           0  0  0
    4.2870    0.9010   -2.4772 C   0  0  0  0  0  4           0  0  0
    4.4726   -0.0929   -0.2816 C   0  0  0  0  0  4           0  0  0
   -7.3864   -0.2965    4.3247 C   0  0  0  0  0  4           0  0  0
   -8.7744   -0.2607    4.0801 C   0  0  0  0  0  4           0  0  0
   -4.8825    0.0617    0.5548 C   0  0  2  0  0  4           0  0  0
   -2.6942   -1.1781    0.8184 C   0  0  0  0  0  4           0  0  0
   -2.6881    1.2482    0.9577 C   0  0  0  0  0  4           0  0  0
   -0.6442    0.0000    1.3933 C   0  0  0  0  0  4           0  0  0
    2.1855    0.0000   -1.4028 C   0  0  2  0  0  4           0  0  0
   -4.2080   -1.2306    1.0387 C   0  0  0  0  0  4           0  0  0
   -4.2009    1.2815    1.1907 C   0  0  0  0  0  4           0  0  0
    0.0000    0.0000    0.0000 C   0  0  0  0  0  4           0  0  0
    1.5368    0.0000    0.0000 C   0  0  0  0  0  4           0  0  0
  1  7  1  0     0  0
  2  8  1  0     0  0
  3  9  2  0     0  0
  4  9  1  0     0  0
  4 10  1  0     0  0
  4 26  1  0     0  0
  5  9  1  0     0  0
  5 11  1  0     0  0
  6 27  1  0     0  0
  6 28  1  0     0  0
  6 29  1  0     0  0
  7 14  2  0     0  0
  7 15  1  0     0  0
  8 16  2  0     0  0
  8 17  1  0     0  0
 10 11  1  0     0  0
 10 18  2  0     0  0
 11 19  2  0     0  0
 12 20  2  0     0  0
 12 21  1  0     0  0
 12 30  1  0     0  0
 13 22  2  0     0  0
 13 23  1  0     0  0
 13 30  1  0     0  0
 14 20  1  0     0  0
 15 21  2  0     0  0
 16 22  1  0     0  0
 17 23  2  0     0  0
 18 24  1  0     0  0
 19 25  1  0     0  0
 24 25  2  0     0  0
 26 31  1  0     0  0
 26 32  1  0     0  0
 27 31  1  0     0  0
 28 32  1  0     0  0
 29 33  1  0     0  0
 30 34  1  0     0  0
 33 34  1  0     0  0
M  END
> <standard_type>
pIC50

> <# Confs.>
25

> <canonical_smiles>
O=C1N(C2CCN(CCCC(C3=CC=C(F)C=C3)C4=CC=C(F)C=C4)CC2)C5=CC=CC=C5N1

> <standard_relation>
=

> <Publication_ID>
nan

> <predicted_activity_value>
nan

> <actual_activity_value>
1.744727494896694

> <Compound>
Pimozide

> <standard_units>
uM

> hash
467123163170552115

$$$$
42
XXILIB    08252103503D 0   0.00000     0.00000

 34 38  0     1  0            999 V2000
    7.8309   -0.0532   -1.4274 F   0  0  0  0  0  1           0  0  0
    0.0336    3.9303   -4.8470 F   0  0  0  0  0  1           0  0  0
   -2.4202    5.7562    5.1548 O   0  0  0  0  0  2           0  0  0
   -0.3869    4.5542    4.8281 N   0  0  2  0  0  3           0  0  0
   -0.3807    6.4014    6.1557 N   0  0  0  0  0  3           0  0  0
   -0.3427    1.1220    2.2847 N   0  0  2  0  0  3           0  0  0
    6.4907   -0.0391   -1.4162 C   0  0  0  0  0  4           0  0  0
    0.5394    2.9952   -4.0309 C   0  0  0  0  0  4           0  0  0
   -1.2241    5.5884    5.3504 C   0  0  0  0  0  4           0  0  0
    0.9221    4.7519    5.3066 C   0  0  0  0  0  4           0  0  0
    0.9133    5.8853    6.1193 C   0  0  0  0  0  4           0  0  0
    3.6940   -0.0000   -1.3991 C   0  0  0  0  0  4           0  0  0
    1.6023    1.0405   -2.3361 C   0  0  0  0  0  4           0  0  0
    5.7905   -0.6445   -2.4534 C   0  0  0  0  0  4           0  0  0
    5.8216    0.5808   -0.3674 C   0  0  0  0  0  4           0  0  0
    1.6210    3.3093   -3.2162 C   0  0  0  0  0  4           0  0  0
   -0.0258    1.7254   -4.0120 C   0  0  0  0  0  4           0  0  0
    2.0849    4.0401    5.0919 C   0  0  0  0  0  4           0  0  0
    2.0436    6.3593    6.7491 C   0  0  0  0  0  4           0  0  0
    4.3953   -0.6261   -2.4426 C   0  0  0  0  0  4           0  0  0
    4.4264    0.5993   -0.3592 C   0  0  0  0  0  4           0  0  0
    2.1491    2.3338   -2.3696 C   0  0  0  0  0  4           0  0  0
    0.5047    0.7510   -3.1657 C   0  0  0  0  0  4           0  0  0
    3.2472    4.5012    5.7215 C   0  0  0  0  0  4           0  0  0
    3.2267    5.6481    6.5411 C   0  0  0  0  0  4           0  0  0
   -0.8019    3.4911    3.9344 C   0  0  2  0  0  4           0  0  0
   -1.0217    0.9967    3.5808 C   0  0  0  0  0  4           0  0  0
   -0.6148    2.4200    1.6533 C   0  0  0  0  0  4           0  0  0
   -0.6442    0.0000    1.3933 C   0  0  0  0  0  4           0  0  0
    2.1855    0.0000   -1.4028 C   0  0  2  0  0  4           0  0  0
   -0.5762    2.0995    4.5441 C   0  0  0  0  0  4           0  0  0
   -0.1474    3.5711    2.5480 C   0  0  0  0  0  4           0  0  0
    0.0000   -0.0000    0.0000 C   0  0  0  0  0  4           0  0  0
    1.5368    0.0000   -0.0000 C   0  0  0  0  0  4           0  0  0
  1  7  1  0     0  0
  2  8  1  0     0  0
  3  9  2  0     0  0
  4  9  1  0     0  0
  4 10  1  0     0  0
  4 26  1  0     0  0
  5  9  1  0     0  0
  5 11  1  0     0  0
  6 27  1  0     0  0
  6 28  1  0     0  0
  6 29  1  0     0  0
  7 14  2  0     0  0
  7 15  1  0     0  0
  8 16  2  0     0  0
  8 17  1  0     0  0
 10 11  1  0     0  0
 10 18  2  0     0  0
 11 19  2  0     0  0
 12 20  2  0     0  0
 12 21  1  0     0  0
 12 30  1  0     0  0
 13 22  2  0     0  0
 13 23  1  0     0  0
 13 30  1  0     0  0
 14 20  1  0     0  0
 15 21  2  0     0  0
 16 22  1  0     0  0
 17 23  2  0     0  0
 18 24  1  0     0  0
 19 25  1  0     0  0
 24 25  2  0     0  0
 26 31  1  0     0  0
 26 32  1  0     0  0
 27 31  1  0     0  0
 28 32  1  0     0  0
 29 33  1  0     0  0
 30 34  1  0     0  0
 33 34  1  0     0  0
M  END
> <standard_type>
pIC50

> <# Confs.>
25

> <canonical_smiles>
O=C1N(C2CCN(CCCC(C3=CC=C(F)C=C3)C4=CC=C(F)C=C4)CC2)C5=CC=CC=C5N1

> <standard_relation>
=

> <Publication_ID>
nan

> <predicted_activity_value>
nan

> <actual_activity_value>
1.744727494896694

> <Compound>
Pimozide

> <standard_units>
uM

> hash
467123163170552115

$$$$
42
XXILIB    08252103503D 0   0.00000     0.00000

 34 38  0     1  0            999 V2000
    0.7840    6.2125   -1.5196 F   0  0  0  0  0  1           0  0  0
    7.7412    0.6737    1.5856 F   0  0  0  0  0  1           0  0  0
   -2.4810   -5.4303    5.5857 O   0  0  0  0  0  2           0  0  0
   -0.3952   -4.5096    4.8871 N   0  0  2  0  0  3           0  0  0
   -0.4016   -6.2894    6.3037 N   0  0  0  0  0  3           0  0  0
   -0.3427   -1.1220    2.2847 N   0  0  2  0  0  3           0  0  0
    1.1201    5.0251   -0.9966 C   0  0  0  0  0  4           0  0  0
    6.4243    0.8001    1.3707 C   0  0  0  0  0  4           0  0  0
   -1.2576   -5.4087    5.5879 C   0  0  0  0  0  4           0  0  0
    0.9393   -4.8445    5.1843 C   0  0  0  0  0  4           0  0  0
    0.9228   -5.9365    6.0516 C   0  0  0  0  0  4           0  0  0
    1.8276    2.5526    0.1029 C   0  0  0  0  0  4           0  0  0
    3.6742    1.0548    0.9292 C   0  0  0  0  0  4           0  0  0
    0.3402    4.4767    0.0150 C   0  0  0  0  0  4           0  0  0
    2.2436    4.3604   -1.4741 C   0  0  0  0  0  4           0  0  0
    5.6586    1.5669    2.2414 C   0  0  0  0  0  4           0  0  0
    5.8446    0.1623    0.2803 C   0  0  0  0  0  4           0  0  0
    2.1305   -4.2846    4.7687 C   0  0  0  0  0  4           0  0  0
    2.0730   -6.5168    6.5410 C   0  0  0  0  0  4           0  0  0
    0.6931    3.2421    0.5613 C   0  0  0  0  0  4           0  0  0
    2.5955    3.1267   -0.9255 C   0  0  0  0  0  4           0  0  0
    4.2870    1.6948    2.0189 C   0  0  0  0  0  4           0  0  0
    4.4726    0.2903    0.0603 C   0  0  0  0  0  4           0  0  0
    3.3135   -4.8568    5.2515 C   0  0  0  0  0  4           0  0  0
    3.2850   -5.9607    6.1279 C   0  0  0  0  0  4           0  0  0
   -0.8157   -3.4171    4.0322 C   0  0  2  0  0  4           0  0  0
   -0.7585   -2.4094    1.7134 C   0  0  0  0  0  4           0  0  0
   -0.8937   -0.9233    3.6317 C   0  0  0  0  0  4           0  0  0
   -0.6442    0.0000    1.3933 C   0  0  0  0  0  4           0  0  0
    2.1855    1.2148    0.7014 C   0  0  2  0  0  4           0  0  0
   -0.3012   -3.5751    2.5937 C   0  0  0  0  0  4           0  0  0
   -0.4338   -2.0344    4.5792 C   0  0  0  0  0  4           0  0  0
    0.0000    0.0000   -0.0000 C   0  0  0  0  0  4           0  0  0
    1.5368    0.0000    0.0000 C   0  0  0  0  0  4           0  0  0
  1  7  1  0     0  0
  2  8  1  0     0  0
  3  9  2  0     0  0
  4  9  1  0     0  0
  4 10  1  0     0  0
  4 26  1  0     0  0
  5  9  1  0     0  0
  5 11  1  0     0  0
  6 27  1  0     0  0
  6 28  1  0     0  0
  6 29  1  0     0  0
  7 14  2  0     0  0
  7 15  1  0     0  0
  8 16  2  0     0  0
  8 17  1  0     0  0
 10 11  1  0     0  0
 10 18  2  0     0  0
 11 19  2  0     0  0
 12 20  2  0     0  0
 12 21  1  0     0  0
 12 30  1  0     0  0
 13 22  2  0     0  0
 13 23  1  0     0  0
 13 30  1  0     0  0
 14 20  1  0     0  0
 15 21  2  0     0  0
 16 22  1  0     0  0
 17 23  2  0     0  0
 18 24  1  0     0  0
 19 25  1  0     0  0
 24 25  2  0     0  0
 26 31  1  0     0  0
 26 32  1  0     0  0
 27 31  1  0     0  0
 28 32  1  0     0  0
 29 33  1  0     0  0
 30 34  1  0     0  0
 33 34  1  0     0  0
M  END
> <standard_type>
pIC50

> <# Confs.>
25

> <canonical_smiles>
O=C1N(C2CCN(CCCC(C3=CC=C(F)C=C3)C4=CC=C(F)C=C4)CC2)C5=CC=CC=C5N1

> <standard_relation>
=

> <Publication_ID>
nan

> <predicted_activity_value>
nan

> <actual_activity_value>
1.744727494896694

> <Compound>
Pimozide

> <standard_units>
uM

> hash
467123163170552115

$$$$
42
XXILIB    08252103503D 0   0.00000     0.00000

 34 38  0     1  0            999 V2000
    0.7840   -4.4223   -4.6204 F   0  0  0  0  0  1           0  0  0
    7.7412    1.0363   -1.3763 F   0  0  0  0  0  1           0  0  0
   -6.8996   -2.9069    3.0836 O   0  0  0  0  0  2           0  0  0
   -6.2475   -0.8263    2.1182 N   0  0  2  0  0  3           0  0  0
   -8.4596   -1.2626    2.4201 N   0  0  0  0  0  3           0  0  0
   -2.1066   -0.0000    1.4690 N   0  0  2  0  0  3           0  0  0
    1.1201   -3.3757   -3.8536 C   0  0  0  0  0  4           0  0  0
    6.4243    0.7870   -1.3783 C   0  0  0  0  0  4           0  0  0
   -7.1615   -1.8118    2.6050 C   0  0  0  0  0  4           0  0  0
   -6.9850    0.2776    1.6505 C   0  0  0  0  0  4           0  0  0
   -8.3382   -0.0006    1.8415 C   0  0  0  0  0  4           0  0  0
    1.8276   -1.1872   -2.2621 C   0  0  0  0  0  4           0  0  0
    3.6742    0.2773   -1.3781 C   0  0  0  0  0  4           0  0  0
    0.3402   -2.2254   -3.8844 C   0  0  0  0  0  4           0  0  0
    2.2436   -3.4568   -3.0392 C   0  0  0  0  0  4           0  0  0
    5.6586    1.1577   -2.4777 C   0  0  0  0  0  4           0  0  0
    5.8446    0.1616   -0.2807 C   0  0  0  0  0  4           0  0  0
   -6.5769    1.4696    1.0868 C   0  0  0  0  0  4           0  0  0
   -9.3372    0.8798    1.4867 C   0  0  0  0  0  4           0  0  0
    0.6931   -1.1349   -3.0884 C   0  0  0  0  0  4           0  0  0
    2.5955   -2.3649   -2.2450 C   0  0  0  0  0  4           0  0  0
    4.2870    0.9010   -2.4772 C   0  0  0  0  0  4           0  0  0
    4.4726   -0.0929   -0.2816 C   0  0  0  0  0  4           0  0  0
   -7.5732    2.3815    0.7182 C   0  0  0  0  0  4           0  0  0
   -8.9382    2.0899    0.9162 C   0  0  0  0  0  4           0  0  0
   -4.8033   -0.9459    2.0842 C   0  0  2  0  0  4           0  0  0
   -2.5887    0.0000    2.8562 C   0  0  0  0  0  4           0  0  0
   -2.7020   -1.0924    0.6882 C   0  0  0  0  0  4           0  0  0
   -0.6442   -0.0000    1.3933 C   0  0  0  0  0  4           0  0  0
    2.1855    0.0000   -1.4028 C   0  0  2  0  0  4           0  0  0
   -4.1111    0.1489    2.9096 C   0  0  0  0  0  4           0  0  0
   -4.2283   -0.9753    0.6611 C   0  0  0  0  0  4           0  0  0
    0.0000    0.0000    0.0000 C   0  0  0  0  0  4           0  0  0
    1.5368    0.0000    0.0000 C   0  0  0  0  0  4           0  0  0
  1  7  1  0     0  0
  2  8  1  0     0  0
  3  9  2  0     0  0
  4  9  1  0     0  0
  4 10  1  0     0  0
  4 26  1  0     0  0
  5  9  1  0     0  0
  5 11  1  0     0  0
  6 27  1  0     0  0
  6 28  1  0     0  0
  6 29  1  0     0  0
  7 14  2  0     0  0
  7 15  1  0     0  0
  8 16  2  0     0  0
  8 17  1  0     0  0
 10 11  1  0     0  0
 10 18  2  0     0  0
 11 19  2  0     0  0
 12 20  2  0     0  0
 12 21  1  0     0  0
 12 30  1  0     0  0
 13 22  2  0     0  0
 13 23  1  0     0  0
 13 30  1  0     0  0
 14 20  1  0     0  0
 15 21  2  0     0  0
 16 22  1  0     0  0
 17 23  2  0     0  0
 18 24  1  0     0  0
 19 25  1  0     0  0
 24 25  2  0     0  0
 26 31  1  0     0  0
 26 32  1  0     0  0
 27 31  1  0     0  0
 28 32  1  0     0  0
 29 33  1  0     0  0
 30 34  1  0     0  0
 33 34  1  0     0  0
M  END
> <standard_type>
pIC50

> <# Confs.>
25

> <canonical_smiles>
O=C1N(C2CCN(CCCC(C3=CC=C(F)C=C3)C4=CC=C(F)C=C4)CC2)C5=CC=CC=C5N1

> <standard_relation>
=

> <Publication_ID>
nan

> <predicted_activity_value>
nan

> <actual_activity_value>
1.744727494896694

> <Compound>
Pimozide

> <standard_units>
uM

> hash
467123163170552115

$$$$
42
XXILIB    08252103503D 0   0.00000     0.00000

 34 38  0     1  0            999 V2000
    0.8266   -4.4021   -4.6661 F   0  0  0  0  0  1           0  0  0
    7.7504    0.9782   -1.2788 F   0  0  0  0  0  1           0  0  0
   -6.8753    2.6351    3.5538 O   0  0  0  0  0  2           0  0  0
   -6.2442    0.7891    2.1826 N   0  0  2  0  0  3           0  0  0
   -8.4512    1.1692    2.5816 N   0  0  0  0  0  3           0  0  0
   -2.1066    0.0000    1.4690 N   0  0  2  0  0  3           0  0  0
    1.1473   -3.3597   -3.8870 C   0  0  0  0  0  4           0  0  0
    6.4297    0.7516   -1.3073 C   0  0  0  0  0  4           0  0  0
   -7.1481    1.6619    2.8642 C   0  0  0  0  0  4           0  0  0
   -6.9919   -0.2004    1.5170 C   0  0  0  0  0  4           0  0  0
   -8.3420    0.0433    1.7676 C   0  0  0  0  0  4           0  0  0
    1.8276   -1.1872   -2.2621 C   0  0  0  0  0  4           0  0  0
    3.6742    0.2773   -1.3781 C   0  0  0  0  0  4           0  0  0
    1.4291   -2.1297   -4.4700 C   0  0  0  0  0  4           0  0  0
    1.1930   -3.5250   -2.5076 C   0  0  0  0  0  4           0  0  0
    5.9561   -0.5518   -1.2117 C   0  0  0  0  0  4           0  0  0
    5.5540    1.8238   -1.4319 C   0  0  0  0  0  4           0  0  0
   -6.5952   -1.2657    0.7340 C   0  0  0  0  0  4           0  0  0
   -9.3490   -0.7485    1.2596 C   0  0  0  0  0  4           0  0  0
    1.7665   -1.0460   -3.6581 C   0  0  0  0  0  4           0  0  0
    1.5319   -2.4405   -1.6976 C   0  0  0  0  0  4           0  0  0
    4.5810   -0.7869   -1.2451 C   0  0  0  0  0  4           0  0  0
    4.1794    1.5865   -1.4665 C   0  0  0  0  0  4           0  0  0
   -7.5998   -2.0850    0.2053 C   0  0  0  0  0  4           0  0  0
   -8.9616   -1.8291    0.4652 C   0  0  0  0  0  4           0  0  0
   -4.7978    0.8842    2.1909 C   0  0  2  0  0  4           0  0  0
   -2.6942    1.1781    0.8184 C   0  0  0  0  0  4           0  0  0
   -2.5902   -0.1558    2.8472 C   0  0  0  0  0  4           0  0  0
   -0.6442    0.0000    1.3933 C   0  0  0  0  0  4           0  0  0
    2.1855    0.0000   -1.4028 C   0  0  2  0  0  4           0  0  0
   -4.2213    1.0816    0.7811 C   0  0  0  0  0  4           0  0  0
   -4.1135   -0.3062    2.8777 C   0  0  0  0  0  4           0  0  0
    0.0000    0.0000   -0.0000 C   0  0  0  0  0  4           0  0  0
    1.5368    0.0000    0.0000 C   0  0  0  0  0  4           0  0  0
  1  7  1  0     0  0
  2  8  1  0     0  0
  3  9  2  0     0  0
  4  9  1  0     0  0
  4 10  1  0     0  0
  4 26  1  0     0  0
  5  9  1  0     0  0
  5 11  1  0     0  0
  6 27  1  0     0  0
  6 28  1  0     0  0
  6 29  1  0     0  0
  7 14  2  0     0  0
  7 15  1  0     0  0
  8 16  2  0     0  0
  8 17  1  0     0  0
 10 11  1  0     0  0
 10 18  2  0     0  0
 11 19  2  0     0  0
 12 20  2  0     0  0
 12 21  1  0     0  0
 12 30  1  0     0  0
 13 22  2  0     0  0
 13 23  1  0     0  0
 13 30  1  0     0  0
 14 20  1  0     0  0
 15 21  2  0     0  0
 16 22  1  0     0  0
 17 23  2  0     0  0
 18 24  1  0     0  0
 19 25  1  0     0  0
 24 25  2  0     0  0
 26 31  1  0     0  0
 26 32  1  0     0  0
 27 31  1  0     0  0
 28 32  1  0     0  0
 29 33  1  0     0  0
 30 34  1  0     0  0
 33 34  1  0     0  0
M  END
> <standard_type>
pIC50

> <# Confs.>
25

> <canonical_smiles>
O=C1N(C2CCN(CCCC(C3=CC=C(F)C=C3)C4=CC=C(F)C=C4)CC2)C5=CC=CC=C5N1

> <standard_relation>
=

> <Publication_ID>
nan

> <predicted_activity_value>
nan

> <actual_activity_value>
1.744727494896694

> <Compound>
Pimozide

> <standard_units>
uM

> hash
467123163170552115

$$$$
42
XXILIB    08252103503D 0   0.00000     0.00000

 34 38  0     1  0            999 V2000
    7.8309   -0.0532   -1.4274 F   0  0  0  0  0  1           0  0  0
    0.0336    3.9303   -4.8470 F   0  0  0  0  0  1           0  0  0
    1.9333    4.0867    5.1189 O   0  0  0  0  0  2           0  0  0
   -0.3869    4.5542    4.8281 N   0  0  2  0  0  3           0  0  0
    0.8526    5.8973    6.1826 N   0  0  0  0  0  3           0  0  0
   -0.3427    1.1220    2.2847 N   0  0  2  0  0  3           0  0  0
    6.4907   -0.0391   -1.4162 C   0  0  0  0  0  4           0  0  0
    0.5394    2.9952   -4.0309 C   0  0  0  0  0  4           0  0  0
    0.9319    4.7532    5.3426 C   0  0  0  0  0  4           0  0  0
   -1.2291    5.5516    5.3544 C   0  0  0  0  0  4           0  0  0
   -0.4588    6.3688    6.1814 C   0  0  0  0  0  4           0  0  0
    3.6940   -0.0000   -1.3991 C   0  0  0  0  0  4           0  0  0
    1.6023    1.0405   -2.3361 C   0  0  0  0  0  4           0  0  0
    5.7905   -0.6445   -2.4534 C   0  0  0  0  0  4           0  0  0
    5.8216    0.5808   -0.3674 C   0  0  0  0  0  4           0  0  0
    1.6210    3.3093   -3.2162 C   0  0  0  0  0  4           0  0  0
   -0.0258    1.7254   -4.0120 C   0  0  0  0  0  4           0  0  0
   -2.5761    5.7920    5.1727 C   0  0  0  0  0  4           0  0  0
   -0.9824    7.4490    6.8583 C   0  0  0  0  0  4           0  0  0
    4.3953   -0.6261   -2.4426 C   0  0  0  0  0  4           0  0  0
    4.4264    0.5993   -0.3592 C   0  0  0  0  0  4           0  0  0
    2.1491    2.3338   -2.3696 C   0  0  0  0  0  4           0  0  0
    0.5047    0.7510   -3.1657 C   0  0  0  0  0  4           0  0  0
   -3.1319    6.8844    5.8491 C   0  0  0  0  0  4           0  0  0
   -2.3436    7.7039    6.6826 C   0  0  0  0  0  4           0  0  0
   -0.8019    3.4911    3.9344 C   0  0  2  0  0  4           0  0  0
   -1.0217    0.9967    3.5808 C   0  0  0  0  0  4           0  0  0
   -0.6148    2.4200    1.6533 C   0  0  0  0  0  4           0  0  0
   -0.6442    0.0000    1.3933 C   0  0  0  0  0  4           0  0  0
    2.1855    0.0000   -1.4028 C   0  0  2  0  0  4           0  0  0
   -0.5762    2.0995    4.5441 C   0  0  0  0  0  4           0  0  0
   -0.1474    3.5711    2.5480 C   0  0  0  0  0  4           0  0  0
    0.0000   -0.0000    0.0000 C   0  0  0  0  0  4           0  0  0
    1.5368    0.0000   -0.0000 C   0  0  0  0  0  4           0  0  0
  1  7  1  0     0  0
  2  8  1  0     0  0
  3  9  2  0     0  0
  4  9  1  0     0  0
  4 10  1  0     0  0
  4 26  1  0     0  0
  5  9  1  0     0  0
  5 11  1  0     0  0
  6 27  1  0     0  0
  6 28  1  0     0  0
  6 29  1  0     0  0
  7 14  2  0     0  0
  7 15  1  0     0  0
  8 16  2  0     0  0
  8 17  1  0     0  0
 10 11  1  0     0  0
 10 18  2  0     0  0
 11 19  2  0     0  0
 12 20  2  0     0  0
 12 21  1  0     0  0
 12 30  1  0     0  0
 13 22  2  0     0  0
 13 23  1  0     0  0
 13 30  1  0     0  0
 14 20  1  0     0  0
 15 21  2  0     0  0
 16 22  1  0     0  0
 17 23  2  0     0  0
 18 24  1  0     0  0
 19 25  1  0     0  0
 24 25  2  0     0  0
 26 31  1  0     0  0
 26 32  1  0     0  0
 27 31  1  0     0  0
 28 32  1  0     0  0
 29 33  1  0     0  0
 30 34  1  0     0  0
 33 34  1  0     0  0
M  END
> <standard_type>
pIC50

> <# Confs.>
25

> <canonical_smiles>
O=C1N(C2CCN(CCCC(C3=CC=C(F)C=C3)C4=CC=C(F)C=C4)CC2)C5=CC=CC=C5N1

> <standard_relation>
=

> <Publication_ID>
nan

> <predicted_activity_value>
nan

> <actual_activity_value>
1.744727494896694

> <Compound>
Pimozide

> <standard_units>
uM

> hash
467123163170552115

$$$$
42
XXILIB    08252103503D 0   0.00000     0.00000

 34 38  0     1  0            999 V2000
    0.8266   -4.4021   -4.6661 F   0  0  0  0  0  1           0  0  0
    7.7504    0.9782   -1.2788 F   0  0  0  0  0  1           0  0  0
    1.9333    4.0867    5.1189 O   0  0  0  0  0  2           0  0  0
   -0.3869    4.5542    4.8281 N   0  0  2  0  0  3           0  0  0
    0.8526    5.8973    6.1826 N   0  0  0  0  0  3           0  0  0
   -0.3427    1.1220    2.2847 N   0  0  2  0  0  3           0  0  0
    1.1473   -3.3597   -3.8870 C   0  0  0  0  0  4           0  0  0
    6.4297    0.7516   -1.3073 C   0  0  0  0  0  4           0  0  0
    0.9319    4.7532    5.3426 C   0  0  0  0  0  4           0  0  0
   -1.2291    5.5516    5.3544 C   0  0  0  0  0  4           0  0  0
   -0.4588    6.3688    6.1814 C   0  0  0  0  0  4           0  0  0
    1.8276   -1.1872   -2.2621 C   0  0  0  0  0  4           0  0  0
    3.6742    0.2773   -1.3781 C   0  0  0  0  0  4           0  0  0
    1.4291   -2.1297   -4.4700 C   0  0  0  0  0  4           0  0  0
    1.1930   -3.5250   -2.5076 C   0  0  0  0  0  4           0  0  0
    5.9561   -0.5518   -1.2117 C   0  0  0  0  0  4           0  0  0
    5.5540    1.8238   -1.4319 C   0  0  0  0  0  4           0  0  0
   -2.5761    5.7920    5.1727 C   0  0  0  0  0  4           0  0  0
   -0.9824    7.4490    6.8583 C   0  0  0  0  0  4           0  0  0
    1.7665   -1.0460   -3.6581 C   0  0  0  0  0  4           0  0  0
    1.5319   -2.4405   -1.6976 C   0  0  0  0  0  4           0  0  0
    4.5810   -0.7869   -1.2451 C   0  0  0  0  0  4           0  0  0
    4.1794    1.5865   -1.4665 C   0  0  0  0  0  4           0  0  0
   -3.1319    6.8844    5.8491 C   0  0  0  0  0  4           0  0  0
   -2.3436    7.7039    6.6826 C   0  0  0  0  0  4           0  0  0
   -0.8019    3.4911    3.9344 C   0  0  2  0  0  4           0  0  0
   -1.0217    0.9967    3.5808 C   0  0  0  0  0  4           0  0  0
   -0.6148    2.4200    1.6533 C   0  0  0  0  0  4           0  0  0
   -0.6442    0.0000    1.3933 C   0  0  0  0  0  4           0  0  0
    2.1855    0.0000   -1.4028 C   0  0  2  0  0  4           0  0  0
   -0.5762    2.0995    4.5441 C   0  0  0  0  0  4           0  0  0
   -0.1474    3.5711    2.5480 C   0  0  0  0  0  4           0  0  0
    0.0000   -0.0000    0.0000 C   0  0  0  0  0  4           0  0  0
    1.5368    0.0000    0.0000 C   0  0  0  0  0  4           0  0  0
  1  7  1  0     0  0
  2  8  1  0     0  0
  3  9  2  0     0  0
  4  9  1  0     0  0
  4 10  1  0     0  0
  4 26  1  0     0  0
  5  9  1  0     0  0
  5 11  1  0     0  0
  6 27  1  0     0  0
  6 28  1  0     0  0
  6 29  1  0     0  0
  7 14  2  0     0  0
  7 15  1  0     0  0
  8 16  2  0     0  0
  8 17  1  0     0  0
 10 11  1  0     0  0
 10 18  2  0     0  0
 11 19  2  0     0  0
 12 20  2  0     0  0
 12 21  1  0     0  0
 12 30  1  0     0  0
 13 22  2  0     0  0
 13 23  1  0     0  0
 13 30  1  0     0  0
 14 20  1  0     0  0
 15 21  2  0     0  0
 16 22  1  0     0  0
 17 23  2  0     0  0
 18 24  1  0     0  0
 19 25  1  0     0  0
 24 25  2  0     0  0
 26 31  1  0     0  0
 26 32  1  0     0  0
 27 31  1  0     0  0
 28 32  1  0     0  0
 29 33  1  0     0  0
 30 34  1  0     0  0
 33 34  1  0     0  0
M  END
> <standard_type>
pIC50

> <# Confs.>
25

> <canonical_smiles>
O=C1N(C2CCN(CCCC(C3=CC=C(F)C=C3)C4=CC=C(F)C=C4)CC2)C5=CC=CC=C5N1

> <standard_relation>
=

> <Publication_ID>
nan

> <predicted_activity_value>
nan

> <actual_activity_value>
1.744727494896694

> <Compound>
Pimozide

> <standard_units>
uM

> hash
467123163170552115

$$$$
42
XXILIB    08252103503D 0   0.00000     0.00000

 34 38  0     1  0            999 V2000
    0.8266   -4.4021   -4.6661 F   0  0  0  0  0  1           0  0  0
    7.7504    0.9782   -1.2788 F   0  0  0  0  0  1           0  0  0
   -7.1357    0.2718   -1.4745 O   0  0  0  0  0  2           0  0  0
   -6.3182    0.0372    0.7533 N   0  0  2  0  0  3           0  0  0
   -8.5643    0.0934    0.3976 N   0  0  0  0  0  3           0  0  0
   -2.1066    0.0000    1.4690 N   0  0  2  0  0  3           0  0  0
    1.1473   -3.3597   -3.8870 C   0  0  0  0  0  4           0  0  0
    6.4297    0.7516   -1.3073 C   0  0  0  0  0  4           0  0  0
   -7.3104    0.1499   -0.2696 C   0  0  0  0  0  4           0  0  0
   -6.9670   -0.0772    1.9972 C   0  0  0  0  0  4           0  0  0
   -8.3421   -0.0427    1.7667 C   0  0  0  0  0  4           0  0  0
    1.8276   -1.1872   -2.2621 C   0  0  0  0  0  4           0  0  0
    3.6742    0.2773   -1.3781 C   0  0  0  0  0  4           0  0  0
    1.4291   -2.1297   -4.4700 C   0  0  0  0  0  4           0  0  0
    1.1930   -3.5250   -2.5076 C   0  0  0  0  0  4           0  0  0
    5.9561   -0.5518   -1.2117 C   0  0  0  0  0  4           0  0  0
    5.5540    1.8238   -1.4319 C   0  0  0  0  0  4           0  0  0
   -6.4635   -0.2039    3.2760 C   0  0  0  0  0  4           0  0  0
   -9.2702   -0.1313    2.7815 C   0  0  0  0  0  4           0  0  0
    1.7665   -1.0460   -3.6581 C   0  0  0  0  0  4           0  0  0
    1.5319   -2.4405   -1.6976 C   0  0  0  0  0  4           0  0  0
    4.5810   -0.7869   -1.2451 C   0  0  0  0  0  4           0  0  0
    4.1794    1.5865   -1.4665 C   0  0  0  0  0  4           0  0  0
   -7.3864   -0.2965    4.3247 C   0  0  0  0  0  4           0  0  0
   -8.7744   -0.2607    4.0801 C   0  0  0  0  0  4           0  0  0
   -4.8825    0.0617    0.5548 C   0  0  2  0  0  4           0  0  0
   -2.6942   -1.1781    0.8184 C   0  0  0  0  0  4           0  0  0
   -2.6881    1.2482    0.9577 C   0  0  0  0  0  4           0  0  0
   -0.6442    0.0000    1.3933 C   0  0  0  0  0  4           0  0  0
    2.1855    0.0000   -1.4028 C   0  0  2  0  0  4           0  0  0
   -4.2080   -1.2306    1.0387 C   0  0  0  0  0  4           0  0  0
   -4.2009    1.2815    1.1907 C   0  0  0  0  0  4           0  0  0
    0.0000    0.0000    0.0000 C   0  0  0  0  0  4           0  0  0
    1.5368    0.0000    0.0000 C   0  0  0  0  0  4           0  0  0
  1  7  1  0     0  0
  2  8  1  0     0  0
  3  9  2  0     0  0
  4  9  1  0     0  0
  4 10  1  0     0  0
  4 26  1  0     0  0
  5  9  1  0     0  0
  5 11  1  0     0  0
  6 27  1  0     0  0
  6 28  1  0     0  0
  6 29  1  0     0  0
  7 14  2  0     0  0
  7 15  1  0     0  0
  8 16  2  0     0  0
  8 17  1  0     0  0
 10 11  1  0     0  0
 10 18  2  0     0  0
 11 19  2  0     0  0
 12 20  2  0     0  0
 12 21  1  0     0  0
 12 30  1  0     0  0
 13 22  2  0     0  0
 13 23  1  0     0  0
 13 30  1  0     0  0
 14 20  1  0     0  0
 15 21  2  0     0  0
 16 22  1  0     0  0
 17 23  2  0     0  0
 18 24  1  0     0  0
 19 25  1  0     0  0
 24 25  2  0     0  0
 26 31  1  0     0  0
 26 32  1  0     0  0
 27 31  1  0     0  0
 28 32  1  0     0  0
 29 33  1  0     0  0
 30 34  1  0     0  0
 33 34  1  0     0  0
M  END
> <standard_type>
pIC50

> <# Confs.>
25

> <canonical_smiles>
O=C1N(C2CCN(CCCC(C3=CC=C(F)C=C3)C4=CC=C(F)C=C4)CC2)C5=CC=CC=C5N1

> <standard_relation>
=

> <Publication_ID>
nan

> <predicted_activity_value>
nan

> <actual_activity_value>
1.744727494896694

> <Compound>
Pimozide

> <standard_units>
uM

> hash
467123163170552115

$$$$
42
XXILIB    08252103503D 0   0.00000     0.00000

 34 38  0     1  0            999 V2000
    0.8266   -4.4021   -4.6661 F   0  0  0  0  0  1           0  0  0
    7.7504    0.9782   -1.2788 F   0  0  0  0  0  1           0  0  0
   -6.8996   -2.9069    3.0836 O   0  0  0  0  0  2           0  0  0
   -6.2475   -0.8263    2.1182 N   0  0  2  0  0  3           0  0  0
   -8.4596   -1.2626    2.4201 N   0  0  0  0  0  3           0  0  0
   -2.1066   -0.0000    1.4690 N   0  0  2  0  0  3           0  0  0
    1.1473   -3.3597   -3.8870 C   0  0  0  0  0  4           0  0  0
    6.4297    0.7516   -1.3073 C   0  0  0  0  0  4           0  0  0
   -7.1615   -1.8118    2.6050 C   0  0  0  0  0  4           0  0  0
   -6.9850    0.2776    1.6505 C   0  0  0  0  0  4           0  0  0
   -8.3382   -0.0006    1.8415 C   0  0  0  0  0  4           0  0  0
    1.8276   -1.1872   -2.2621 C   0  0  0  0  0  4           0  0  0
    3.6742    0.2773   -1.3781 C   0  0  0  0  0  4           0  0  0
    1.4291   -2.1297   -4.4700 C   0  0  0  0  0  4           0  0  0
    1.1930   -3.5250   -2.5076 C   0  0  0  0  0  4           0  0  0
    5.9561   -0.5518   -1.2117 C   0  0  0  0  0  4           0  0  0
    5.5540    1.8238   -1.4319 C   0  0  0  0  0  4           0  0  0
   -6.5769    1.4696    1.0868 C   0  0  0  0  0  4           0  0  0
   -9.3372    0.8798    1.4867 C   0  0  0  0  0  4           0  0  0
    1.7665   -1.0460   -3.6581 C   0  0  0  0  0  4           0  0  0
    1.5319   -2.4405   -1.6976 C   0  0  0  0  0  4           0  0  0
    4.5810   -0.7869   -1.2451 C   0  0  0  0  0  4           0  0  0
    4.1794    1.5865   -1.4665 C   0  0  0  0  0  4           0  0  0
   -7.5732    2.3815    0.7182 C   0  0  0  0  0  4           0  0  0
   -8.9382    2.0899    0.9162 C   0  0  0  0  0  4           0  0  0
   -4.8033   -0.9459    2.0842 C   0  0  2  0  0  4           0  0  0
   -2.5887    0.0000    2.8562 C   0  0  0  0  0  4           0  0  0
   -2.7020   -1.0924    0.6882 C   0  0  0  0  0  4           0  0  0
   -0.6442   -0.0000    1.3933 C   0  0  0  0  0  4           0  0  0
    2.1855    0.0000   -1.4028 C   0  0  2  0  0  4           0  0  0
   -4.1111    0.1489    2.9096 C   0  0  0  0  0  4           0  0  0
   -4.2283   -0.9753    0.6611 C   0  0  0  0  0  4           0  0  0
    0.0000    0.0000    0.0000 C   0  0  0  0  0  4           0  0  0
    1.5368    0.0000    0.0000 C   0  0  0  0  0  4           0  0  0
  1  7  1  0     0  0
  2  8  1  0     0  0
  3  9  2  0     0  0
  4  9  1  0     0  0
  4 10  1  0     0  0
  4 26  1  0     0  0
  5  9  1  0     0  0
  5 11  1  0     0  0
  6 27  1  0     0  0
  6 28  1  0     0  0
  6 29  1  0     0  0
  7 14  2  0     0  0
  7 15  1  0     0  0
  8 16  2  0     0  0
  8 17  1  0     0  0
 10 11  1  0     0  0
 10 18  2  0     0  0
 11 19  2  0     0  0
 12 20  2  0     0  0
 12 21  1  0     0  0
 12 30  1  0     0  0
 13 22  2  0     0  0
 13 23  1  0     0  0
 13 30  1  0     0  0
 14 20  1  0     0  0
 15 21  2  0     0  0
 16 22  1  0     0  0
 17 23  2  0     0  0
 18 24  1  0     0  0
 19 25  1  0     0  0
 24 25  2  0     0  0
 26 31  1  0     0  0
 26 32  1  0     0  0
 27 31  1  0     0  0
 28 32  1  0     0  0
 29 33  1  0     0  0
 30 34  1  0     0  0
 33 34  1  0     0  0
M  END
> <standard_type>
pIC50

> <# Confs.>
25

> <canonical_smiles>
O=C1N(C2CCN(CCCC(C3=CC=C(F)C=C3)C4=CC=C(F)C=C4)CC2)C5=CC=CC=C5N1

> <standard_relation>
=

> <Publication_ID>
nan

> <predicted_activity_value>
nan

> <actual_activity_value>
1.744727494896694

> <Compound>
Pimozide

> <standard_units>
uM

> hash
467123163170552115

$$$$
42
XXILIB    08252103503D 0   0.00000     0.00000

 34 38  0     1  0            999 V2000
    7.8309   -0.0532   -1.4274 F   0  0  0  0  0  1           0  0  0
    0.0336    3.9303   -4.8470 F   0  0  0  0  0  1           0  0  0
    1.9812   -4.3437    4.7793 O   0  0  0  0  0  2           0  0  0
   -0.3952   -4.5096    4.8871 N   0  0  2  0  0  3           0  0  0
    0.8732   -6.0081    6.0361 N   0  0  0  0  0  3           0  0  0
   -0.3427   -1.1220    2.2847 N   0  0  2  0  0  3           0  0  0
    6.4907   -0.0391   -1.4162 C   0  0  0  0  0  4           0  0  0
    0.5394    2.9952   -4.0309 C   0  0  0  0  0  4           0  0  0
    0.9551   -4.8777    5.1780 C   0  0  0  0  0  4           0  0  0
   -1.2569   -5.4028    5.5510 C   0  0  0  0  0  4           0  0  0
   -0.4688   -6.3152    6.2522 C   0  0  0  0  0  4           0  0  0
    3.6940   -0.0000   -1.3991 C   0  0  0  0  0  4           0  0  0
    1.6023    1.0405   -2.3361 C   0  0  0  0  0  4           0  0  0
    5.7905   -0.6445   -2.4534 C   0  0  0  0  0  4           0  0  0
    5.8216    0.5808   -0.3674 C   0  0  0  0  0  4           0  0  0
    1.6210    3.3093   -3.2162 C   0  0  0  0  0  4           0  0  0
   -0.0258    1.7254   -4.0120 C   0  0  0  0  0  4           0  0  0
   -2.6346   -5.4781    5.5874 C   0  0  0  0  0  4           0  0  0
   -1.0041   -7.3321    7.0127 C   0  0  0  0  0  4           0  0  0
    4.3953   -0.6261   -2.4426 C   0  0  0  0  0  4           0  0  0
    4.4264    0.5993   -0.3592 C   0  0  0  0  0  4           0  0  0
    2.1491    2.3338   -2.3696 C   0  0  0  0  0  4           0  0  0
    0.5047    0.7510   -3.1657 C   0  0  0  0  0  4           0  0  0
   -3.2030   -6.5025    6.3540 C   0  0  0  0  0  4           0  0  0
   -2.3967   -7.4193    7.0589 C   0  0  0  0  0  4           0  0  0
   -0.8157   -3.4171    4.0322 C   0  0  2  0  0  4           0  0  0
   -0.7585   -2.4094    1.7134 C   0  0  0  0  0  4           0  0  0
   -0.8937   -0.9233    3.6317 C   0  0  0  0  0  4           0  0  0
   -0.6442    0.0000    1.3933 C   0  0  0  0  0  4           0  0  0
    2.1855    0.0000   -1.4028 C   0  0  2  0  0  4           0  0  0
   -0.3012   -3.5751    2.5937 C   0  0  0  0  0  4           0  0  0
   -0.4338   -2.0344    4.5792 C   0  0  0  0  0  4           0  0  0
    0.0000    0.0000   -0.0000 C   0  0  0  0  0  4           0  0  0
    1.5368    0.0000   -0.0000 C   0  0  0  0  0  4           0  0  0
  1  7  1  0     0  0
  2  8  1  0     0  0
  3  9  2  0     0  0
  4  9  1  0     0  0
  4 10  1  0     0  0
  4 26  1  0     0  0
  5  9  1  0     0  0
  5 11  1  0     0  0
  6 27  1  0     0  0
  6 28  1  0     0  0
  6 29  1  0     0  0
  7 14  2  0     0  0
  7 15  1  0     0  0
  8 16  2  0     0  0
  8 17  1  0     0  0
 10 11  1  0     0  0
 10 18  2  0     0  0
 11 19  2  0     0  0
 12 20  2  0     0  0
 12 21  1  0     0  0
 12 30  1  0     0  0
 13 22  2  0     0  0
 13 23  1  0     0  0
 13 30  1  0     0  0
 14 20  1  0     0  0
 15 21  2  0     0  0
 16 22  1  0     0  0
 17 23  2  0     0  0
 18 24  1  0     0  0
 19 25  1  0     0  0
 24 25  2  0     0  0
 26 31  1  0     0  0
 26 32  1  0     0  0
 27 31  1  0     0  0
 28 32  1  0     0  0
 29 33  1  0     0  0
 30 34  1  0     0  0
 33 34  1  0     0  0
M  END
> <standard_type>
pIC50

> <# Confs.>
25

> <canonical_smiles>
O=C1N(C2CCN(CCCC(C3=CC=C(F)C=C3)C4=CC=C(F)C=C4)CC2)C5=CC=CC=C5N1

> <standard_relation>
=

> <Publication_ID>
nan

> <predicted_activity_value>
nan

> <actual_activity_value>
1.744727494896694

> <Compound>
Pimozide

> <standard_units>
uM

> hash
467123163170552115

$$$$
42
XXILIB    08252103503D 0   0.00000     0.00000

 34 38  0     1  0            999 V2000
    0.7840   -4.4223   -4.6204 F   0  0  0  0  0  1           0  0  0
    7.7412    1.0363   -1.3763 F   0  0  0  0  0  1           0  0  0
   -6.5933    1.3369    1.1763 O   0  0  0  0  0  2           0  0  0
   -6.2475   -0.8263    2.1182 N   0  0  2  0  0  3           0  0  0
   -8.3695   -0.0313    1.9184 N   0  0  0  0  0  3           0  0  0
   -2.1066   -0.0000    1.4690 N   0  0  2  0  0  3           0  0  0
    1.1201   -3.3757   -3.8536 C   0  0  0  0  0  4           0  0  0
    6.4243    0.7870   -1.3783 C   0  0  0  0  0  4           0  0  0
   -7.0089    0.2978    1.6709 C   0  0  0  0  0  4           0  0  0
   -7.1337   -1.7959    2.6242 C   0  0  0  0  0  4           0  0  0
   -8.4302   -1.2983    2.4955 C   0  0  0  0  0  4           0  0  0
    1.8276   -1.1872   -2.2621 C   0  0  0  0  0  4           0  0  0
    3.6742    0.2773   -1.3781 C   0  0  0  0  0  4           0  0  0
    0.3402   -2.2254   -3.8844 C   0  0  0  0  0  4           0  0  0
    2.2436   -3.4568   -3.0392 C   0  0  0  0  0  4           0  0  0
    5.6586    1.1577   -2.4777 C   0  0  0  0  0  4           0  0  0
    5.8446    0.1616   -0.2807 C   0  0  0  0  0  4           0  0  0
   -6.9012   -3.0409    3.1728 C   0  0  0  0  0  4           0  0  0
   -9.5427   -2.0039    2.9000 C   0  0  0  0  0  4           0  0  0
    0.6931   -1.1349   -3.0884 C   0  0  0  0  0  4           0  0  0
    2.5955   -2.3649   -2.2450 C   0  0  0  0  0  4           0  0  0
    4.2870    0.9010   -2.4772 C   0  0  0  0  0  4           0  0  0
    4.4726   -0.0929   -0.2816 C   0  0  0  0  0  4           0  0  0
   -8.0154   -3.7781    3.5910 C   0  0  0  0  0  4           0  0  0
   -9.3217   -3.2653    3.4560 C   0  0  0  0  0  4           0  0  0
   -4.8033   -0.9459    2.0842 C   0  0  2  0  0  4           0  0  0
   -2.5887    0.0000    2.8562 C   0  0  0  0  0  4           0  0  0
   -2.7020   -1.0924    0.6882 C   0  0  0  0  0  4           0  0  0
   -0.6442   -0.0000    1.3933 C   0  0  0  0  0  4           0  0  0
    2.1855    0.0000   -1.4028 C   0  0  2  0  0  4           0  0  0
   -4.1111    0.1489    2.9096 C   0  0  0  0  0  4           0  0  0
   -4.2283   -0.9753    0.6611 C   0  0  0  0  0  4           0  0  0
    0.0000    0.0000    0.0000 C   0  0  0  0  0  4           0  0  0
    1.5368    0.0000    0.0000 C   0  0  0  0  0  4           0  0  0
  1  7  1  0     0  0
  2  8  1  0     0  0
  3  9  2  0     0  0
  4  9  1  0     0  0
  4 10  1  0     0  0
  4 26  1  0     0  0
  5  9  1  0     0  0
  5 11  1  0     0  0
  6 27  1  0     0  0
  6 28  1  0     0  0
  6 29  1  0     0  0
  7 14  2  0     0  0
  7 15  1  0     0  0
  8 16  2  0     0  0
  8 17  1  0     0  0
 10 11  1  0     0  0
 10 18  2  0     0  0
 11 19  2  0     0  0
 12 20  2  0     0  0
 12 21  1  0     0  0
 12 30  1  0     0  0
 13 22  2  0     0  0
 13 23  1  0     0  0
 13 30  1  0     0  0
 14 20  1  0     0  0
 15 21  2  0     0  0
 16 22  1  0     0  0
 17 23  2  0     0  0
 18 24  1  0     0  0
 19 25  1  0     0  0
 24 25  2  0     0  0
 26 31  1  0     0  0
 26 32  1  0     0  0
 27 31  1  0     0  0
 28 32  1  0     0  0
 29 33  1  0     0  0
 30 34  1  0     0  0
 33 34  1  0     0  0
M  END
> <standard_type>
pIC50

> <# Confs.>
25

> <canonical_smiles>
O=C1N(C2CCN(CCCC(C3=CC=C(F)C=C3)C4=CC=C(F)C=C4)CC2)C5=CC=CC=C5N1

> <standard_relation>
=

> <Publication_ID>
nan

> <predicted_activity_value>
nan

> <actual_activity_value>
1.744727494896694

> <Compound>
Pimozide

> <standard_units>
uM

> hash
467123163170552115

$$$$
42
XXILIB    08252103503D 0   0.00000     0.00000

 34 38  0     1  0            999 V2000
    0.7840   -4.4223   -4.6204 F   0  0  0  0  0  1           0  0  0
    7.7412    1.0363   -1.3763 F   0  0  0  0  0  1           0  0  0
   -4.9888   -0.9142    1.7177 O   0  0  0  0  0  2           0  0  0
   -4.2668   -2.6292    3.2089 N   0  0  2  0  0  3           0  0  0
   -6.4939   -2.3433    2.8446 N   0  0  0  0  0  3           0  0  0
   -0.3427   -1.1220    2.2847 N   0  0  2  0  0  3           0  0  0
    1.1201   -3.3757   -3.8536 C   0  0  0  0  0  4           0  0  0
    6.4243    0.7870   -1.3783 C   0  0  0  0  0  4           0  0  0
   -5.2140   -1.8385    2.4870 C   0  0  0  0  0  4           0  0  0
   -4.9672   -3.5755    3.9803 C   0  0  0  0  0  4           0  0  0
   -6.3301   -3.3916    3.7481 C   0  0  0  0  0  4           0  0  0
    1.8276   -1.1872   -2.2621 C   0  0  0  0  0  4           0  0  0
    3.6742    0.2773   -1.3781 C   0  0  0  0  0  4           0  0  0
    0.3402   -2.2254   -3.8844 C   0  0  0  0  0  4           0  0  0
    2.2436   -3.4568   -3.0392 C   0  0  0  0  0  4           0  0  0
    5.6586    1.1577   -2.4777 C   0  0  0  0  0  4           0  0  0
    5.8446    0.1616   -0.2807 C   0  0  0  0  0  4           0  0  0
   -4.5190   -4.5543    4.8441 C   0  0  0  0  0  4           0  0  0
   -7.2997   -4.1605    4.3545 C   0  0  0  0  0  4           0  0  0
    0.6931   -1.1349   -3.0884 C   0  0  0  0  0  4           0  0  0
    2.5955   -2.3649   -2.2450 C   0  0  0  0  0  4           0  0  0
    4.2870    0.9010   -2.4772 C   0  0  0  0  0  4           0  0  0
    4.4726   -0.0929   -0.2816 C   0  0  0  0  0  4           0  0  0
   -5.4848   -5.3496    5.4723 C   0  0  0  0  0  4           0  0  0
   -6.8600   -5.1549    5.2300 C   0  0  0  0  0  4           0  0  0
   -2.8260   -2.4729    3.1779 C   0  0  2  0  0  4           0  0  0
   -0.7509   -2.4193    1.7315 C   0  0  0  0  0  4           0  0  0
   -0.8717   -0.9333    3.6414 C   0  0  0  0  0  4           0  0  0
   -0.6442    0.0000    1.3933 C   0  0  0  0  0  4           0  0  0
    2.1855    0.0000   -1.4028 C   0  0  2  0  0  4           0  0  0
   -2.2641   -2.6561    1.7608 C   0  0  0  0  0  4           0  0  0
   -2.3897   -1.1134    3.7438 C   0  0  0  0  0  4           0  0  0
    0.0000    0.0000   -0.0000 C   0  0  0  0  0  4           0  0  0
    1.5368    0.0000    0.0000 C   0  0  0  0  0  4           0  0  0
  1  7  1  0     0  0
  2  8  1  0     0  0
  3  9  2  0     0  0
  4  9  1  0     0  0
  4 10  1  0     0  0
  4 26  1  0     0  0
  5  9  1  0     0  0
  5 11  1  0     0  0
  6 27  1  0     0  0
  6 28  1  0     0  0
  6 29  1  0     0  0
  7 14  2  0     0  0
  7 15  1  0     0  0
  8 16  2  0     0  0
  8 17  1  0     0  0
 10 11  1  0     0  0
 10 18  2  0     0  0
 11 19  2  0     0  0
 12 20  2  0     0  0
 12 21  1  0     0  0
 12 30  1  0     0  0
 13 22  2  0     0  0
 13 23  1  0     0  0
 13 30  1  0     0  0
 14 20  1  0     0  0
 15 21  2  0     0  0
 16 22  1  0     0  0
 17 23  2  0     0  0
 18 24  1  0     0  0
 19 25  1  0     0  0
 24 25  2  0     0  0
 26 31  1  0     0  0
 26 32  1  0     0  0
 27 31  1  0     0  0
 28 32  1  0     0  0
 29 33  1  0     0  0
 30 34  1  0     0  0
 33 34  1  0     0  0
M  END
> <standard_type>
pIC50

> <# Confs.>
25

> <canonical_smiles>
O=C1N(C2CCN(CCCC(C3=CC=C(F)C=C3)C4=CC=C(F)C=C4)CC2)C5=CC=CC=C5N1

> <standard_relation>
=

> <Publication_ID>
nan

> <predicted_activity_value>
nan

> <actual_activity_value>
1.744727494896694

> <Compound>
Pimozide

> <standard_units>
uM

> hash
467123163170552115

$$$$
42
XXILIB    08252103503D 0   0.00000     0.00000

 34 38  0     1  0            999 V2000
    0.8266    6.2420   -1.4792 F   0  0  0  0  0  1           0  0  0
    7.7504    0.6184    1.4866 F   0  0  0  0  0  1           0  0  0
   -6.8753    2.6351    3.5538 O   0  0  0  0  0  2           0  0  0
   -6.2442    0.7891    2.1826 N   0  0  2  0  0  3           0  0  0
   -8.4512    1.1692    2.5816 N   0  0  0  0  0  3           0  0  0
   -2.1066    0.0000    1.4690 N   0  0  2  0  0  3           0  0  0
    1.1473    5.0461   -0.9661 C   0  0  0  0  0  4           0  0  0
    6.4297    0.7563    1.3046 C   0  0  0  0  0  4           0  0  0
   -7.1481    1.6619    2.8642 C   0  0  0  0  0  4           0  0  0
   -6.9919   -0.2004    1.5170 C   0  0  0  0  0  4           0  0  0
   -8.3420    0.0433    1.7676 C   0  0  0  0  0  4           0  0  0
    1.8276    2.5526    0.1029 C   0  0  0  0  0  4           0  0  0
    3.6742    1.0548    0.9292 C   0  0  0  0  0  4           0  0  0
    1.4291    4.9360    0.3907 C   0  0  0  0  0  4           0  0  0
    1.1930    3.9341   -1.7989 C   0  0  0  0  0  4           0  0  0
    5.9561    1.3253    0.1280 C   0  0  0  0  0  4           0  0  0
    5.5540    0.3281    2.2954 C   0  0  0  0  0  4           0  0  0
   -6.5952   -1.2657    0.7340 C   0  0  0  0  0  4           0  0  0
   -9.3490   -0.7485    1.2596 C   0  0  0  0  0  4           0  0  0
    1.7665    3.6911    0.9232 C   0  0  0  0  0  4           0  0  0
    1.5319    2.6904   -1.2647 C   0  0  0  0  0  4           0  0  0
    4.5810    1.4718   -0.0589 C   0  0  0  0  0  4           0  0  0
    4.1794    0.4768    2.1071 C   0  0  0  0  0  4           0  0  0
   -7.5998   -2.0850    0.2053 C   0  0  0  0  0  4           0  0  0
   -8.9616   -1.8291    0.4652 C   0  0  0  0  0  4           0  0  0
   -4.7978    0.8842    2.1909 C   0  0  2  0  0  4           0  0  0
   -2.6942    1.1781    0.8184 C   0  0  0  0  0  4           0  0  0
   -2.5902   -0.1558    2.8472 C   0  0  0  0  0  4           0  0  0
   -0.6442    0.0000    1.3933 C   0  0  0  0  0  4           0  0  0
    2.1855    1.2148    0.7014 C   0  0  2  0  0  4           0  0  0
   -4.2213    1.0816    0.7811 C   0  0  0  0  0  4           0  0  0
   -4.1135   -0.3062    2.8777 C   0  0  0  0  0  4           0  0  0
    0.0000    0.0000   -0.0000 C   0  0  0  0  0  4           0  0  0
    1.5368    0.0000    0.0000 C   0  0  0  0  0  4           0  0  0
  1  7  1  0     0  0
  2  8  1  0     0  0
  3  9  2  0     0  0
  4  9  1  0     0  0
  4 10  1  0     0  0
  4 26  1  0     0  0
  5  9  1  0     0  0
  5 11  1  0     0  0
  6 27  1  0     0  0
  6 28  1  0     0  0
  6 29  1  0     0  0
  7 14  2  0     0  0
  7 15  1  0     0  0
  8 16  2  0     0  0
  8 17  1  0     0  0
 10 11  1  0     0  0
 10 18  2  0     0  0
 11 19  2  0     0  0
 12 20  2  0     0  0
 12 21  1  0     0  0
 12 30  1  0     0  0
 13 22  2  0     0  0
 13 23  1  0     0  0
 13 30  1  0     0  0
 14 20  1  0     0  0
 15 21  2  0     0  0
 16 22  1  0     0  0
 17 23  2  0     0  0
 18 24  1  0     0  0
 19 25  1  0     0  0
 24 25  2  0     0  0
 26 31  1  0     0  0
 26 32  1  0     0  0
 27 31  1  0     0  0
 28 32  1  0     0  0
 29 33  1  0     0  0
 30 34  1  0     0  0
 33 34  1  0     0  0
M  END
> <standard_type>
pIC50

> <# Confs.>
25

> <canonical_smiles>
O=C1N(C2CCN(CCCC(C3=CC=C(F)C=C3)C4=CC=C(F)C=C4)CC2)C5=CC=CC=C5N1

> <standard_relation>
=

> <Publication_ID>
nan

> <predicted_activity_value>
nan

> <actual_activity_value>
1.744727494896694

> <Compound>
Pimozide

> <standard_units>
uM

> hash
467123163170552115

$$$$
42
XXILIB    08252103503D 0   0.00000     0.00000

 34 38  0     1  0            999 V2000
    0.7840   -4.4223   -4.6204 F   0  0  0  0  0  1           0  0  0
    7.7412    1.0363   -1.3763 F   0  0  0  0  0  1           0  0  0
   -6.6125   -1.1226    0.8056 O   0  0  0  0  0  2           0  0  0
   -6.2442    0.7891    2.1826 N   0  0  2  0  0  3           0  0  0
   -8.3777    0.1237    1.7585 N   0  0  0  0  0  3           0  0  0
   -2.1066    0.0000    1.4690 N   0  0  2  0  0  3           0  0  0
    1.1201   -3.3757   -3.8536 C   0  0  0  0  0  4           0  0  0
    6.4243    0.7870   -1.3783 C   0  0  0  0  0  4           0  0  0
   -7.0182   -0.1940    1.4912 C   0  0  0  0  0  4           0  0  0
   -7.1226    1.6718    2.8388 C   0  0  0  0  0  4           0  0  0
   -8.4262    1.2536    2.5728 C   0  0  0  0  0  4           0  0  0
    1.8276   -1.1872   -2.2621 C   0  0  0  0  0  4           0  0  0
    3.6742    0.2773   -1.3781 C   0  0  0  0  0  4           0  0  0
    0.3402   -2.2254   -3.8844 C   0  0  0  0  0  4           0  0  0
    2.2436   -3.4568   -3.0392 C   0  0  0  0  0  4           0  0  0
    5.6586    1.1577   -2.4777 C   0  0  0  0  0  4           0  0  0
    5.8446    0.1616   -0.2807 C   0  0  0  0  0  4           0  0  0
   -6.8777    2.7792    3.6255 C   0  0  0  0  0  4           0  0  0
   -9.5339    1.9065    3.0686 C   0  0  0  0  0  4           0  0  0
    0.6931   -1.1349   -3.0884 C   0  0  0  0  0  4           0  0  0
    2.5955   -2.3649   -2.2450 C   0  0  0  0  0  4           0  0  0
    4.2870    0.9010   -2.4772 C   0  0  0  0  0  4           0  0  0
    4.4726   -0.0929   -0.2816 C   0  0  0  0  0  4           0  0  0
   -7.9869    3.4596    4.1419 C   0  0  0  0  0  4           0  0  0
   -9.3005    3.0279    3.8666 C   0  0  0  0  0  4           0  0  0
   -4.7978    0.8842    2.1909 C   0  0  2  0  0  4           0  0  0
   -2.6942    1.1781    0.8184 C   0  0  0  0  0  4           0  0  0
   -2.5902   -0.1558    2.8472 C   0  0  0  0  0  4           0  0  0
   -0.6442    0.0000    1.3933 C   0  0  0  0  0  4           0  0  0
    2.1855    0.0000   -1.4028 C   0  0  2  0  0  4           0  0  0
   -4.2213    1.0816    0.7811 C   0  0  0  0  0  4           0  0  0
   -4.1135   -0.3062    2.8777 C   0  0  0  0  0  4           0  0  0
    0.0000    0.0000   -0.0000 C   0  0  0  0  0  4           0  0  0
    1.5368    0.0000    0.0000 C   0  0  0  0  0  4           0  0  0
  1  7  1  0     0  0
  2  8  1  0     0  0
  3  9  2  0     0  0
  4  9  1  0     0  0
  4 10  1  0     0  0
  4 26  1  0     0  0
  5  9  1  0     0  0
  5 11  1  0     0  0
  6 27  1  0     0  0
  6 28  1  0     0  0
  6 29  1  0     0  0
  7 14  2  0     0  0
  7 15  1  0     0  0
  8 16  2  0     0  0
  8 17  1  0     0  0
 10 11  1  0     0  0
 10 18  2  0     0  0
 11 19  2  0     0  0
 12 20  2  0     0  0
 12 21  1  0     0  0
 12 30  1  0     0  0
 13 22  2  0     0  0
 13 23  1  0     0  0
 13 30  1  0     0  0
 14 20  1  0     0  0
 15 21  2  0     0  0
 16 22  1  0     0  0
 17 23  2  0     0  0
 18 24  1  0     0  0
 19 25  1  0     0  0
 24 25  2  0     0  0
 26 31  1  0     0  0
 26 32  1  0     0  0
 27 31  1  0     0  0
 28 32  1  0     0  0
 29 33  1  0     0  0
 30 34  1  0     0  0
 33 34  1  0     0  0
M  END
> <standard_type>
pIC50

> <# Confs.>
25

> <canonical_smiles>
O=C1N(C2CCN(CCCC(C3=CC=C(F)C=C3)C4=CC=C(F)C=C4)CC2)C5=CC=CC=C5N1

> <standard_relation>
=

> <Publication_ID>
nan

> <predicted_activity_value>
nan

> <actual_activity_value>
1.744727494896694

> <Compound>
Pimozide

> <standard_units>
uM

> hash
467123163170552115

$$$$
13
XXILIB    08252103503D 0   0.00000     0.00000

 29 31  0     1  0            999 V2000
   -2.4661   -1.9905    0.3874 S   0  0  0  0  0  2           0  0  0
   -8.5913   -0.0630   -1.1504 O   0  0  0  0  0  2           0  0  0
   -0.9783    2.7997   -1.3140 O   0  0  0  0  0  2           0  0  0
   -0.0595   -0.0968   -2.3193 O   0  0  0  0  0  2           0  0  0
   -2.5402    1.3802   -0.3789 O   0  0  0  0  0  2           0  0  0
   -0.0000    0.0000    0.0000 N   0  0  1  0  0  3           0  0  0
    3.5180   -1.4097    0.0000 N   0  0  2  0  0  3           0  0  0
   -1.8281   -0.7642    1.5198 C   0  0  0  0  0  4           0  0  0
   -7.2499   -0.3153   -1.2036 C   0  0  0  0  0  4           0  0  0
   -0.6693   -0.0000    1.2700 C   0  0  0  0  0  4           0  0  0
   -4.4592   -0.7304   -1.0752 C   0  0  0  0  0  4           0  0  0
   -2.4501   -0.6985    2.7790 C   0  0  0  0  0  4           0  0  0
   -6.5856   -0.9617   -2.2482 C   0  0  0  0  0  4           0  0  0
   -6.5161    0.1273   -0.0997 C   0  0  0  0  0  4           0  0  0
   -0.1495    0.7849    2.3176 C   0  0  0  0  0  4           0  0  0
   -5.2024   -1.1621   -2.1838 C   0  0  0  0  0  4           0  0  0
   -5.1352   -0.0760   -0.0361 C   0  0  0  0  0  4           0  0  0
   -1.9369    0.1120    3.7886 C   0  0  0  0  0  4           0  0  0
   -0.7816    0.8469    3.5605 C   0  0  0  0  0  4           0  0  0
   -2.9691   -0.9572   -1.0416 C   0  0  1  0  0  4           0  0  0
   -1.8701    2.5582   -0.5114 C   0  0  0  0  0  4           0  0  0
   -0.6492    0.0471   -1.2419 C   0  0  0  0  0  4           0  0  0
   -2.1566    0.3300   -1.2691 C   0  0  2  0  0  4           0  0  0
   -9.3408   -0.5136   -2.2761 C   0  0  0  0  0  4           0  0  0
    1.4514   -0.0000   -0.0000 C   0  0  0  0  0  4           0  0  0
    2.0519   -1.4061    0.0000 C   0  0  0  0  0  4           0  0  0
    4.0624   -0.7307   -1.1784 C   0  0  0  0  0  4           0  0  0
    4.0177   -2.7853    0.0583 C   0  0  0  0  0  4           0  0  0
   -2.3819    3.5444    0.4938 C   0  0  0  0  0  4           0  0  0
  1  8  1  0     0  0
  1 20  1  0     0  0
  2  9  1  0     0  0
  2 24  1  0     0  0
  3 21  2  0     0  0
  4 22  2  0     0  0
  5 21  1  0     0  0
  5 23  1  0     0  0
  6 10  1  0     0  0
  6 22  1  0     0  0
  6 25  1  0     0  0
  7 26  1  0     0  0
  7 27  1  0     0  0
  7 28  1  0     0  0
  8 10  2  0     0  0
  8 12  1  0     0  0
  9 13  2  0     0  0
  9 14  1  0     0  0
 10 15  1  0     0  0
 11 16  2  0     0  0
 11 17  1  0     0  0
 11 20  1  0     0  0
 12 18  2  0     0  0
 13 16  1  0     0  0
 14 17  2  0     0  0
 15 19  2  0     0  0
 18 19  1  0     0  0
 20 23  1  0     0  0
 21 29  1  0     0  0
 22 23  1  0     0  0
 25 26  1  0     0  0
M  END
> <standard_type>
pIC50

> <# Confs.>
25

> <canonical_smiles>
O=C1[C@@H]([C@@H](SC2=C(N1CCN(C)C)C=CC=C2)C3=CC=C(OC)C=C3)OC(C)=O

> <standard_relation>
=

> <Publication_ID>
nan

> <predicted_activity_value>
nan

> <actual_activity_value>
-1.2380461031287955

> <Compound>
Diltiazem

> <standard_units>
uM

> hash
1563956001557007101

$$$$
13
XXILIB    08252103503D 0   0.00000     0.00000

 29 31  0     1  0            999 V2000
   -2.2757    2.1741    0.4600 S   0  0  0  0  0  2           0  0  0
   -3.6390    4.5819   -5.4547 O   0  0  0  0  0  2           0  0  0
   -4.7368   -0.8746   -1.8064 O   0  0  0  0  0  2           0  0  0
   -0.0678    0.2402   -2.3123 O   0  0  0  0  0  2           0  0  0
   -2.5408   -0.6584   -2.4845 O   0  0  0  0  0  2           0  0  0
   -0.0000    0.0000    0.0000 N   0  0  1  0  0  3           0  0  0
    3.5180   -1.2209   -0.7049 N   0  0  2  0  0  3           0  0  0
   -1.7482    0.8662    1.5593 C   0  0  0  0  0  4           0  0  0
   -3.5637    3.7519   -4.3725 C   0  0  0  0  0  4           0  0  0
   -0.6720    0.0000    1.2708 C   0  0  0  0  0  4           0  0  0
   -3.1525    2.0910   -2.1254 C   0  0  0  0  0  4           0  0  0
   -2.3695    0.8162    2.8188 C   0  0  0  0  0  4           0  0  0
   -4.6406    3.0864   -3.7825 C   0  0  0  0  0  4           0  0  0
   -2.2827    3.5805   -3.8409 C   0  0  0  0  0  4           0  0  0
   -0.2460   -0.8902    2.2739 C   0  0  0  0  0  4           0  0  0
   -4.4331    2.2609   -2.6721 C   0  0  0  0  0  4           0  0  0
   -2.0780    2.7577   -2.7304 C   0  0  0  0  0  4           0  0  0
   -1.9421   -0.0869    3.7892 C   0  0  0  0  0  4           0  0  0
   -0.8783   -0.9370    3.5179 C   0  0  0  0  0  4           0  0  0
   -2.9641    1.1891   -0.9322 C   0  0  1  0  0  4           0  0  0
   -3.8505   -0.9965   -2.6415 C   0  0  0  0  0  4           0  0  0
   -0.6594    0.0873   -1.2394 C   0  0  0  0  0  4           0  0  0
   -2.1765   -0.1084   -1.2167 C   0  0  2  0  0  4           0  0  0
   -4.9452    4.7570   -5.9981 C   0  0  0  0  0  4           0  0  0
    1.4514    0.0000   -0.0000 C   0  0  0  0  0  4           0  0  0
    2.0519   -1.2178   -0.7031 C   0  0  0  0  0  4           0  0  0
    4.0624   -0.0437   -1.3859 C   0  0  0  0  0  4           0  0  0
    4.0177   -2.4413   -1.3422 C   0  0  0  0  0  4           0  0  0
   -4.0636   -1.5625   -4.0124 C   0  0  0  0  0  4           0  0  0
  1  8  1  0     0  0
  1 20  1  0     0  0
  2  9  1  0     0  0
  2 24  1  0     0  0
  3 21  2  0     0  0
  4 22  2  0     0  0
  5 21  1  0     0  0
  5 23  1  0     0  0
  6 10  1  0     0  0
  6 22  1  0     0  0
  6 25  1  0     0  0
  7 26  1  0     0  0
  7 27  1  0     0  0
  7 28  1  0     0  0
  8 10  2  0     0  0
  8 12  1  0     0  0
  9 13  2  0     0  0
  9 14  1  0     0  0
 10 15  1  0     0  0
 11 16  2  0     0  0
 11 17  1  0     0  0
 11 20  1  0     0  0
 12 18  2  0     0  0
 13 16  1  0     0  0
 14 17  2  0     0  0
 15 19  2  0     0  0
 18 19  1  0     0  0
 20 23  1  0     0  0
 21 29  1  0     0  0
 22 23  1  0     0  0
 25 26  1  0     0  0
M  END
> <standard_type>
pIC50

> <# Confs.>
25

> <canonical_smiles>
O=C1[C@@H]([C@@H](SC2=C(N1CCN(C)C)C=CC=C2)C3=CC=C(OC)C=C3)OC(C)=O

> <standard_relation>
=

> <Publication_ID>
nan

> <predicted_activity_value>
nan

> <actual_activity_value>
-1.2380461031287955

> <Compound>
Diltiazem

> <standard_units>
uM

> hash
1563956001557007101

$$$$
13
XXILIB    08252103503D 0   0.00000     0.00000

 29 31  0     1  0            999 V2000
   -2.4661   -1.9905    0.3874 S   0  0  0  0  0  2           0  0  0
   -8.6020   -0.1384   -1.1865 O   0  0  0  0  0  2           0  0  0
   -0.9783    2.7997   -1.3140 O   0  0  0  0  0  2           0  0  0
   -0.0595   -0.0968   -2.3193 O   0  0  0  0  0  2           0  0  0
   -2.5402    1.3802   -0.3789 O   0  0  0  0  0  2           0  0  0
   -0.0000    0.0000    0.0000 N   0  0  1  0  0  3           0  0  0
    3.5180   -1.2209    0.7049 N   0  0  2  0  0  3           0  0  0
   -1.8281   -0.7642    1.5198 C   0  0  0  0  0  4           0  0  0
   -7.2500   -0.2961   -1.0727 C   0  0  0  0  0  4           0  0  0
   -0.6693    0.0000    1.2700 C   0  0  0  0  0  4           0  0  0
   -4.4592   -0.7304   -1.0752 C   0  0  0  0  0  4           0  0  0
   -2.4501   -0.6985    2.7790 C   0  0  0  0  0  4           0  0  0
   -6.4701    0.1306    0.0046 C   0  0  0  0  0  4           0  0  0
   -6.6331   -0.9442   -2.1461 C   0  0  0  0  0  4           0  0  0
   -0.1495    0.7849    2.3176 C   0  0  0  0  0  4           0  0  0
   -5.0885   -0.0899    0.0024 C   0  0  0  0  0  4           0  0  0
   -5.2528   -1.1612   -2.1475 C   0  0  0  0  0  4           0  0  0
   -1.9369    0.1120    3.7886 C   0  0  0  0  0  4           0  0  0
   -0.7816    0.8469    3.5605 C   0  0  0  0  0  4           0  0  0
   -2.9691   -0.9572   -1.0416 C   0  0  1  0  0  4           0  0  0
   -1.8701    2.5582   -0.5114 C   0  0  0  0  0  4           0  0  0
   -0.6492    0.0471   -1.2419 C   0  0  0  0  0  4           0  0  0
   -2.1566    0.3300   -1.2691 C   0  0  2  0  0  4           0  0  0
   -9.2323    0.5222   -0.0919 C   0  0  0  0  0  4           0  0  0
    1.4514   -0.0000   -0.0000 C   0  0  0  0  0  4           0  0  0
    2.0519   -1.2178    0.7031 C   0  0  0  0  0  4           0  0  0
    4.0624   -1.2220   -0.6551 C   0  0  0  0  0  4           0  0  0
    4.0177   -2.3830    1.4431 C   0  0  0  0  0  4           0  0  0
   -2.3819    3.5444    0.4938 C   0  0  0  0  0  4           0  0  0
  1  8  1  0     0  0
  1 20  1  0     0  0
  2  9  1  0     0  0
  2 24  1  0     0  0
  3 21  2  0     0  0
  4 22  2  0     0  0
  5 21  1  0     0  0
  5 23  1  0     0  0
  6 10  1  0     0  0
  6 22  1  0     0  0
  6 25  1  0     0  0
  7 26  1  0     0  0
  7 27  1  0     0  0
  7 28  1  0     0  0
  8 10  2  0     0  0
  8 12  1  0     0  0
  9 13  2  0     0  0
  9 14  1  0     0  0
 10 15  1  0     0  0
 11 16  2  0     0  0
 11 17  1  0     0  0
 11 20  1  0     0  0
 12 18  2  0     0  0
 13 16  1  0     0  0
 14 17  2  0     0  0
 15 19  2  0     0  0
 18 19  1  0     0  0
 20 23  1  0     0  0
 21 29  1  0     0  0
 22 23  1  0     0  0
 25 26  1  0     0  0
M  END
> <standard_type>
pIC50

> <# Confs.>
25

> <canonical_smiles>
O=C1[C@@H]([C@@H](SC2=C(N1CCN(C)C)C=CC=C2)C3=CC=C(OC)C=C3)OC(C)=O

> <standard_relation>
=

> <Publication_ID>
nan

> <predicted_activity_value>
nan

> <actual_activity_value>
-1.2380461031287955

> <Compound>
Diltiazem

> <standard_units>
uM

> hash
1563956001557007101

$$$$
13
XXILIB    08252103503D 0   0.00000     0.00000

 29 31  0     1  0            999 V2000
   -2.2757    2.1741    0.4600 S   0  0  0  0  0  2           0  0  0
   -3.6390    4.5819   -5.4547 O   0  0  0  0  0  2           0  0  0
   -1.0666   -2.4109   -2.1945 O   0  0  0  0  0  2           0  0  0
   -0.0678    0.2402   -2.3123 O   0  0  0  0  0  2           0  0  0
   -2.5408   -0.6584   -2.4845 O   0  0  0  0  0  2           0  0  0
   -0.0000    0.0000    0.0000 N   0  0  1  0  0  3           0  0  0
    3.5180   -1.2209   -0.7049 N   0  0  2  0  0  3           0  0  0
   -1.7482    0.8662    1.5593 C   0  0  0  0  0  4           0  0  0
   -3.5637    3.7519   -4.3725 C   0  0  0  0  0  4           0  0  0
   -0.6720    0.0000    1.2708 C   0  0  0  0  0  4           0  0  0
   -3.1525    2.0910   -2.1254 C   0  0  0  0  0  4           0  0  0
   -2.3695    0.8162    2.8188 C   0  0  0  0  0  4           0  0  0
   -4.6406    3.0864   -3.7825 C   0  0  0  0  0  4           0  0  0
   -2.2827    3.5805   -3.8409 C   0  0  0  0  0  4           0  0  0
   -0.2460   -0.8902    2.2739 C   0  0  0  0  0  4           0  0  0
   -4.4331    2.2609   -2.6721 C   0  0  0  0  0  4           0  0  0
   -2.0780    2.7577   -2.7304 C   0  0  0  0  0  4           0  0  0
   -1.9421   -0.0869    3.7892 C   0  0  0  0  0  4           0  0  0
   -0.8783   -0.9370    3.5179 C   0  0  0  0  0  4           0  0  0
   -2.9641    1.1891   -0.9322 C   0  0  1  0  0  4           0  0  0
   -1.9093   -1.8091   -2.8468 C   0  0  0  0  0  4           0  0  0
   -0.6594    0.0873   -1.2394 C   0  0  0  0  0  4           0  0  0
   -2.1765   -0.1084   -1.2167 C   0  0  2  0  0  4           0  0  0
   -4.9452    4.7570   -5.9981 C   0  0  0  0  0  4           0  0  0
    1.4514    0.0000   -0.0000 C   0  0  0  0  0  4           0  0  0
    2.0519   -1.2178   -0.7031 C   0  0  0  0  0  4           0  0  0
    4.0624   -0.0437   -1.3859 C   0  0  0  0  0  4           0  0  0
    4.0177   -2.4413   -1.3422 C   0  0  0  0  0  4           0  0  0
   -2.3940   -2.2463   -4.1956 C   0  0  0  0  0  4           0  0  0
  1  8  1  0     0  0
  1 20  1  0     0  0
  2  9  1  0     0  0
  2 24  1  0     0  0
  3 21  2  0     0  0
  4 22  2  0     0  0
  5 21  1  0     0  0
  5 23  1  0     0  0
  6 10  1  0     0  0
  6 22  1  0     0  0
  6 25  1  0     0  0
  7 26  1  0     0  0
  7 27  1  0     0  0
  7 28  1  0     0  0
  8 10  2  0     0  0
  8 12  1  0     0  0
  9 13  2  0     0  0
  9 14  1  0     0  0
 10 15  1  0     0  0
 11 16  2  0     0  0
 11 17  1  0     0  0
 11 20  1  0     0  0
 12 18  2  0     0  0
 13 16  1  0     0  0
 14 17  2  0     0  0
 15 19  2  0     0  0
 18 19  1  0     0  0
 20 23  1  0     0  0
 21 29  1  0     0  0
 22 23  1  0     0  0
 25 26  1  0     0  0
M  END
> <standard_type>
pIC50

> <# Confs.>
25

> <canonical_smiles>
O=C1[C@@H]([C@@H](SC2=C(N1CCN(C)C)C=CC=C2)C3=CC=C(OC)C=C3)OC(C)=O

> <standard_relation>
=

> <Publication_ID>
nan

> <predicted_activity_value>
nan

> <actual_activity_value>
-1.2380461031287955

> <Compound>
Diltiazem

> <standard_units>
uM

> hash
1563956001557007101

$$$$
13
XXILIB    08252103503D 0   0.00000     0.00000

 29 31  0     1  0            999 V2000
   -2.2757    2.1741    0.4600 S   0  0  0  0  0  2           0  0  0
   -3.7120    4.6092   -5.4225 O   0  0  0  0  0  2           0  0  0
   -4.7368   -0.8746   -1.8064 O   0  0  0  0  0  2           0  0  0
   -0.0678    0.2402   -2.3123 O   0  0  0  0  0  2           0  0  0
   -2.5408   -0.6584   -2.4845 O   0  0  0  0  0  2           0  0  0
   -0.0000    0.0000    0.0000 N   0  0  1  0  0  3           0  0  0
    3.5180    1.4097   -0.0000 N   0  0  2  0  0  3           0  0  0
   -1.7482    0.8662    1.5593 C   0  0  0  0  0  4           0  0  0
   -3.4469    3.8089   -4.3479 C   0  0  0  0  0  4           0  0  0
   -0.6720   -0.0000    1.2708 C   0  0  0  0  0  4           0  0  0
   -3.1525    2.0910   -2.1254 C   0  0  0  0  0  4           0  0  0
   -2.3695    0.8162    2.8188 C   0  0  0  0  0  4           0  0  0
   -2.1875    3.6001   -3.7815 C   0  0  0  0  0  4           0  0  0
   -4.5571    3.1625   -3.7978 C   0  0  0  0  0  4           0  0  0
   -0.2460   -0.8902    2.2739 C   0  0  0  0  0  4           0  0  0
   -2.0454    2.7520   -2.6778 C   0  0  0  0  0  4           0  0  0
   -4.4128    2.3140   -2.6972 C   0  0  0  0  0  4           0  0  0
   -1.9421   -0.0869    3.7892 C   0  0  0  0  0  4           0  0  0
   -0.8783   -0.9370    3.5179 C   0  0  0  0  0  4           0  0  0
   -2.9641    1.1891   -0.9322 C   0  0  1  0  0  4           0  0  0
   -3.8505   -0.9965   -2.6415 C   0  0  0  0  0  4           0  0  0
   -0.6594    0.0873   -1.2394 C   0  0  0  0  0  4           0  0  0
   -2.1765   -0.1084   -1.2167 C   0  0  2  0  0  4           0  0  0
   -2.5803    5.2693   -5.9841 C   0  0  0  0  0  4           0  0  0
    1.4514   -0.0000    0.0000 C   0  0  0  0  0  4           0  0  0
    2.0519    1.4061   -0.0000 C   0  0  0  0  0  4           0  0  0
    4.0624    0.7307    1.1784 C   0  0  0  0  0  4           0  0  0
    4.0177    2.7853   -0.0583 C   0  0  0  0  0  4           0  0  0
   -4.0636   -1.5625   -4.0124 C   0  0  0  0  0  4           0  0  0
  1  8  1  0     0  0
  1 20  1  0     0  0
  2  9  1  0     0  0
  2 24  1  0     0  0
  3 21  2  0     0  0
  4 22  2  0     0  0
  5 21  1  0     0  0
  5 23  1  0     0  0
  6 10  1  0     0  0
  6 22  1  0     0  0
  6 25  1  0     0  0
  7 26  1  0     0  0
  7 27  1  0     0  0
  7 28  1  0     0  0
  8 10  2  0     0  0
  8 12  1  0     0  0
  9 13  2  0     0  0
  9 14  1  0     0  0
 10 15  1  0     0  0
 11 16  2  0     0  0
 11 17  1  0     0  0
 11 20  1  0     0  0
 12 18  2  0     0  0
 13 16  1  0     0  0
 14 17  2  0     0  0
 15 19  2  0     0  0
 18 19  1  0     0  0
 20 23  1  0     0  0
 21 29  1  0     0  0
 22 23  1  0     0  0
 25 26  1  0     0  0
M  END
> <standard_type>
pIC50

> <# Confs.>
25

> <canonical_smiles>
O=C1[C@@H]([C@@H](SC2=C(N1CCN(C)C)C=CC=C2)C3=CC=C(OC)C=C3)OC(C)=O

> <standard_relation>
=

> <Publication_ID>
nan

> <predicted_activity_value>
nan

> <actual_activity_value>
-1.2380461031287955

> <Compound>
Diltiazem

> <standard_units>
uM

> hash
1563956001557007101

$$$$
13
XXILIB    08252103503D 0   0.00000     0.00000

 29 31  0     1  0            999 V2000
   -2.2757    2.1741    0.4600 S   0  0  0  0  0  2           0  0  0
   -3.6390    4.5819   -5.4547 O   0  0  0  0  0  2           0  0  0
   -4.7368   -0.8746   -1.8064 O   0  0  0  0  0  2           0  0  0
   -0.0678    0.2402   -2.3123 O   0  0  0  0  0  2           0  0  0
   -2.5408   -0.6584   -2.4845 O   0  0  0  0  0  2           0  0  0
   -0.0000    0.0000    0.0000 N   0  0  1  0  0  3           0  0  0
    3.5180    1.4097   -0.0000 N   0  0  2  0  0  3           0  0  0
   -1.7482    0.8662    1.5593 C   0  0  0  0  0  4           0  0  0
   -3.5637    3.7519   -4.3725 C   0  0  0  0  0  4           0  0  0
   -0.6720    0.0000    1.2708 C   0  0  0  0  0  4           0  0  0
   -3.1525    2.0910   -2.1254 C   0  0  0  0  0  4           0  0  0
   -2.3695    0.8162    2.8188 C   0  0  0  0  0  4           0  0  0
   -4.6406    3.0864   -3.7825 C   0  0  0  0  0  4           0  0  0
   -2.2827    3.5805   -3.8409 C   0  0  0  0  0  4           0  0  0
   -0.2460   -0.8902    2.2739 C   0  0  0  0  0  4           0  0  0
   -4.4331    2.2609   -2.6721 C   0  0  0  0  0  4           0  0  0
   -2.0780    2.7577   -2.7304 C   0  0  0  0  0  4           0  0  0
   -1.9421   -0.0869    3.7892 C   0  0  0  0  0  4           0  0  0
   -0.8783   -0.9370    3.5179 C   0  0  0  0  0  4           0  0  0
   -2.9641    1.1891   -0.9322 C   0  0  1  0  0  4           0  0  0
   -3.8505   -0.9965   -2.6415 C   0  0  0  0  0  4           0  0  0
   -0.6594    0.0873   -1.2394 C   0  0  0  0  0  4           0  0  0
   -2.1765   -0.1084   -1.2167 C   0  0  2  0  0  4           0  0  0
   -4.9452    4.7570   -5.9981 C   0  0  0  0  0  4           0  0  0
    1.4514   -0.0000   -0.0000 C   0  0  0  0  0  4           0  0  0
    2.0519    1.4061    0.0000 C   0  0  0  0  0  4           0  0  0
    4.0574    2.7717    0.0000 C   0  0  0  0  0  4           0  0  0
    4.0229    0.6733   -1.1611 C   0  0  0  0  0  4           0  0  0
   -4.0636   -1.5625   -4.0124 C   0  0  0  0  0  4           0  0  0
  1  8  1  0     0  0
  1 20  1  0     0  0
  2  9  1  0     0  0
  2 24  1  0     0  0
  3 21  2  0     0  0
  4 22  2  0     0  0
  5 21  1  0     0  0
  5 23  1  0     0  0
  6 10  1  0     0  0
  6 22  1  0     0  0
  6 25  1  0     0  0
  7 26  1  0     0  0
  7 27  1  0     0  0
  7 28  1  0     0  0
  8 10  2  0     0  0
  8 12  1  0     0  0
  9 13  2  0     0  0
  9 14  1  0     0  0
 10 15  1  0     0  0
 11 16  2  0     0  0
 11 17  1  0     0  0
 11 20  1  0     0  0
 12 18  2  0     0  0
 13 16  1  0     0  0
 14 17  2  0     0  0
 15 19  2  0     0  0
 18 19  1  0     0  0
 20 23  1  0     0  0
 21 29  1  0     0  0
 22 23  1  0     0  0
 25 26  1  0     0  0
M  END
> <standard_type>
pIC50

> <# Confs.>
25

> <canonical_smiles>
O=C1[C@@H]([C@@H](SC2=C(N1CCN(C)C)C=CC=C2)C3=CC=C(OC)C=C3)OC(C)=O

> <standard_relation>
=

> <Publication_ID>
nan

> <predicted_activity_value>
nan

> <actual_activity_value>
-1.2380461031287955

> <Compound>
Diltiazem

> <standard_units>
uM

> hash
1563956001557007101

$$$$
13
XXILIB    08252103503D 0   0.00000     0.00000

 29 31  0     1  0            999 V2000
   -2.4661   -1.9905    0.3874 S   0  0  0  0  0  2           0  0  0
   -8.5913   -0.0630   -1.1504 O   0  0  0  0  0  2           0  0  0
   -0.9783    2.7997   -1.3140 O   0  0  0  0  0  2           0  0  0
   -0.0595   -0.0968   -2.3193 O   0  0  0  0  0  2           0  0  0
   -2.5402    1.3802   -0.3789 O   0  0  0  0  0  2           0  0  0
   -0.0000    0.0000    0.0000 N   0  0  1  0  0  3           0  0  0
    3.5180    1.2209   -0.7049 N   0  0  2  0  0  3           0  0  0
   -1.8281   -0.7642    1.5198 C   0  0  0  0  0  4           0  0  0
   -7.2499   -0.3153   -1.2036 C   0  0  0  0  0  4           0  0  0
   -0.6693   -0.0000    1.2700 C   0  0  0  0  0  4           0  0  0
   -4.4592   -0.7304   -1.0752 C   0  0  0  0  0  4           0  0  0
   -2.4501   -0.6985    2.7790 C   0  0  0  0  0  4           0  0  0
   -6.5856   -0.9617   -2.2482 C   0  0  0  0  0  4           0  0  0
   -6.5161    0.1273   -0.0997 C   0  0  0  0  0  4           0  0  0
   -0.1495    0.7849    2.3176 C   0  0  0  0  0  4           0  0  0
   -5.2024   -1.1621   -2.1838 C   0  0  0  0  0  4           0  0  0
   -5.1352   -0.0760   -0.0361 C   0  0  0  0  0  4           0  0  0
   -1.9369    0.1120    3.7886 C   0  0  0  0  0  4           0  0  0
   -0.7816    0.8469    3.5605 C   0  0  0  0  0  4           0  0  0
   -2.9691   -0.9572   -1.0416 C   0  0  1  0  0  4           0  0  0
   -1.8701    2.5582   -0.5114 C   0  0  0  0  0  4           0  0  0
   -0.6492    0.0471   -1.2419 C   0  0  0  0  0  4           0  0  0
   -2.1566    0.3300   -1.2691 C   0  0  2  0  0  4           0  0  0
   -9.3408   -0.5136   -2.2761 C   0  0  0  0  0  4           0  0  0
    1.4514   -0.0000    0.0000 C   0  0  0  0  0  4           0  0  0
    2.0519    1.2178   -0.7031 C   0  0  0  0  0  4           0  0  0
    4.0574    2.4004   -1.3859 C   0  0  0  0  0  4           0  0  0
    4.0229    0.0026   -1.3422 C   0  0  0  0  0  4           0  0  0
   -2.3819    3.5444    0.4938 C   0  0  0  0  0  4           0  0  0
  1  8  1  0     0  0
  1 20  1  0     0  0
  2  9  1  0     0  0
  2 24  1  0     0  0
  3 21  2  0     0  0
  4 22  2  0     0  0
  5 21  1  0     0  0
  5 23  1  0     0  0
  6 10  1  0     0  0
  6 22  1  0     0  0
  6 25  1  0     0  0
  7 26  1  0     0  0
  7 27  1  0     0  0
  7 28  1  0     0  0
  8 10  2  0     0  0
  8 12  1  0     0  0
  9 13  2  0     0  0
  9 14  1  0     0  0
 10 15  1  0     0  0
 11 16  2  0     0  0
 11 17  1  0     0  0
 11 20  1  0     0  0
 12 18  2  0     0  0
 13 16  1  0     0  0
 14 17  2  0     0  0
 15 19  2  0     0  0
 18 19  1  0     0  0
 20 23  1  0     0  0
 21 29  1  0     0  0
 22 23  1  0     0  0
 25 26  1  0     0  0
M  END
> <standard_type>
pIC50

> <# Confs.>
25

> <canonical_smiles>
O=C1[C@@H]([C@@H](SC2=C(N1CCN(C)C)C=CC=C2)C3=CC=C(OC)C=C3)OC(C)=O

> <standard_relation>
=

> <Publication_ID>
nan

> <predicted_activity_value>
nan

> <actual_activity_value>
-1.2380461031287955

> <Compound>
Diltiazem

> <standard_units>
uM

> hash
1563956001557007101

$$$$
13
XXILIB    08252103503D 0   0.00000     0.00000

 29 31  0     1  0            999 V2000
   -2.2757    2.1741    0.4600 S   0  0  0  0  0  2           0  0  0
   -3.7120    4.6092   -5.4225 O   0  0  0  0  0  2           0  0  0
   -1.0666   -2.4109   -2.1945 O   0  0  0  0  0  2           0  0  0
   -0.0678    0.2402   -2.3123 O   0  0  0  0  0  2           0  0  0
   -2.5408   -0.6584   -2.4845 O   0  0  0  0  0  2           0  0  0
   -0.0000    0.0000    0.0000 N   0  0  1  0  0  3           0  0  0
    3.5180    1.4097   -0.0000 N   0  0  2  0  0  3           0  0  0
   -1.7482    0.8662    1.5593 C   0  0  0  0  0  4           0  0  0
   -3.4469    3.8089   -4.3479 C   0  0  0  0  0  4           0  0  0
   -0.6720   -0.0000    1.2708 C   0  0  0  0  0  4           0  0  0
   -3.1525    2.0910   -2.1254 C   0  0  0  0  0  4           0  0  0
   -2.3695    0.8162    2.8188 C   0  0  0  0  0  4           0  0  0
   -2.1875    3.6001   -3.7815 C   0  0  0  0  0  4           0  0  0
   -4.5571    3.1625   -3.7978 C   0  0  0  0  0  4           0  0  0
   -0.2460   -0.8902    2.2739 C   0  0  0  0  0  4           0  0  0
   -2.0454    2.7520   -2.6778 C   0  0  0  0  0  4           0  0  0
   -4.4128    2.3140   -2.6972 C   0  0  0  0  0  4           0  0  0
   -1.9421   -0.0869    3.7892 C   0  0  0  0  0  4           0  0  0
   -0.8783   -0.9370    3.5179 C   0  0  0  0  0  4           0  0  0
   -2.9641    1.1891   -0.9322 C   0  0  1  0  0  4           0  0  0
   -1.9093   -1.8091   -2.8468 C   0  0  0  0  0  4           0  0  0
   -0.6594    0.0873   -1.2394 C   0  0  0  0  0  4           0  0  0
   -2.1765   -0.1084   -1.2167 C   0  0  2  0  0  4           0  0  0
   -2.5803    5.2693   -5.9841 C   0  0  0  0  0  4           0  0  0
    1.4514   -0.0000    0.0000 C   0  0  0  0  0  4           0  0  0
    2.0519    1.4061   -0.0000 C   0  0  0  0  0  4           0  0  0
    4.0624    0.7307    1.1784 C   0  0  0  0  0  4           0  0  0
    4.0177    2.7853   -0.0583 C   0  0  0  0  0  4           0  0  0
   -2.3940   -2.2463   -4.1956 C   0  0  0  0  0  4           0  0  0
  1  8  1  0     0  0
  1 20  1  0     0  0
  2  9  1  0     0  0
  2 24  1  0     0  0
  3 21  2  0     0  0
  4 22  2  0     0  0
  5 21  1  0     0  0
  5 23  1  0     0  0
  6 10  1  0     0  0
  6 22  1  0     0  0
  6 25  1  0     0  0
  7 26  1  0     0  0
  7 27  1  0     0  0
  7 28  1  0     0  0
  8 10  2  0     0  0
  8 12  1  0     0  0
  9 13  2  0     0  0
  9 14  1  0     0  0
 10 15  1  0     0  0
 11 16  2  0     0  0
 11 17  1  0     0  0
 11 20  1  0     0  0
 12 18  2  0     0  0
 13 16  1  0     0  0
 14 17  2  0     0  0
 15 19  2  0     0  0
 18 19  1  0     0  0
 20 23  1  0     0  0
 21 29  1  0     0  0
 22 23  1  0     0  0
 25 26  1  0     0  0
M  END
> <standard_type>
pIC50

> <# Confs.>
25

> <canonical_smiles>
O=C1[C@@H]([C@@H](SC2=C(N1CCN(C)C)C=CC=C2)C3=CC=C(OC)C=C3)OC(C)=O

> <standard_relation>
=

> <Publication_ID>
nan

> <predicted_activity_value>
nan

> <actual_activity_value>
-1.2380461031287955

> <Compound>
Diltiazem

> <standard_units>
uM

> hash
1563956001557007101

$$$$
13
XXILIB    08252103503D 0   0.00000     0.00000

 29 31  0     1  0            999 V2000
   -2.2757    2.1741    0.4600 S   0  0  0  0  0  2           0  0  0
   -3.6390    4.5819   -5.4547 O   0  0  0  0  0  2           0  0  0
   -1.0666   -2.4109   -2.1945 O   0  0  0  0  0  2           0  0  0
   -0.0678    0.2402   -2.3123 O   0  0  0  0  0  2           0  0  0
   -2.5408   -0.6584   -2.4845 O   0  0  0  0  0  2           0  0  0
   -0.0000    0.0000    0.0000 N   0  0  1  0  0  3           0  0  0
    3.5180    1.4097   -0.0000 N   0  0  2  0  0  3           0  0  0
   -1.7482    0.8662    1.5593 C   0  0  0  0  0  4           0  0  0
   -3.5637    3.7519   -4.3725 C   0  0  0  0  0  4           0  0  0
   -0.6720    0.0000    1.2708 C   0  0  0  0  0  4           0  0  0
   -3.1525    2.0910   -2.1254 C   0  0  0  0  0  4           0  0  0
   -2.3695    0.8162    2.8188 C   0  0  0  0  0  4           0  0  0
   -4.6406    3.0864   -3.7825 C   0  0  0  0  0  4           0  0  0
   -2.2827    3.5805   -3.8409 C   0  0  0  0  0  4           0  0  0
   -0.2460   -0.8902    2.2739 C   0  0  0  0  0  4           0  0  0
   -4.4331    2.2609   -2.6721 C   0  0  0  0  0  4           0  0  0
   -2.0780    2.7577   -2.7304 C   0  0  0  0  0  4           0  0  0
   -1.9421   -0.0869    3.7892 C   0  0  0  0  0  4           0  0  0
   -0.8783   -0.9370    3.5179 C   0  0  0  0  0  4           0  0  0
   -2.9641    1.1891   -0.9322 C   0  0  1  0  0  4           0  0  0
   -1.9093   -1.8091   -2.8468 C   0  0  0  0  0  4           0  0  0
   -0.6594    0.0873   -1.2394 C   0  0  0  0  0  4           0  0  0
   -2.1765   -0.1084   -1.2167 C   0  0  2  0  0  4           0  0  0
   -4.9452    4.7570   -5.9981 C   0  0  0  0  0  4           0  0  0
    1.4514   -0.0000   -0.0000 C   0  0  0  0  0  4           0  0  0
    2.0519    1.4061    0.0000 C   0  0  0  0  0  4           0  0  0
    4.0574    2.7717    0.0000 C   0  0  0  0  0  4           0  0  0
    4.0229    0.6733   -1.1611 C   0  0  0  0  0  4           0  0  0
   -2.3940   -2.2463   -4.1956 C   0  0  0  0  0  4           0  0  0
  1  8  1  0     0  0
  1 20  1  0     0  0
  2  9  1  0     0  0
  2 24  1  0     0  0
  3 21  2  0     0  0
  4 22  2  0     0  0
  5 21  1  0     0  0
  5 23  1  0     0  0
  6 10  1  0     0  0
  6 22  1  0     0  0
  6 25  1  0     0  0
  7 26  1  0     0  0
  7 27  1  0     0  0
  7 28  1  0     0  0
  8 10  2  0     0  0
  8 12  1  0     0  0
  9 13  2  0     0  0
  9 14  1  0     0  0
 10 15  1  0     0  0
 11 16  2  0     0  0
 11 17  1  0     0  0
 11 20  1  0     0  0
 12 18  2  0     0  0
 13 16  1  0     0  0
 14 17  2  0     0  0
 15 19  2  0     0  0
 18 19  1  0     0  0
 20 23  1  0     0  0
 21 29  1  0     0  0
 22 23  1  0     0  0
 25 26  1  0     0  0
M  END
> <standard_type>
pIC50

> <# Confs.>
25

> <canonical_smiles>
O=C1[C@@H]([C@@H](SC2=C(N1CCN(C)C)C=CC=C2)C3=CC=C(OC)C=C3)OC(C)=O

> <standard_relation>
=

> <Publication_ID>
nan

> <predicted_activity_value>
nan

> <actual_activity_value>
-1.2380461031287955

> <Compound>
Diltiazem

> <standard_units>
uM

> hash
1563956001557007101

$$$$
13
XXILIB    08252103503D 0   0.00000     0.00000

 29 31  0     1  0            999 V2000
   -2.2757    2.1741    0.4600 S   0  0  0  0  0  2           0  0  0
   -3.7120    4.6092   -5.4225 O   0  0  0  0  0  2           0  0  0
   -4.7368   -0.8746   -1.8064 O   0  0  0  0  0  2           0  0  0
   -0.0678    0.2402   -2.3123 O   0  0  0  0  0  2           0  0  0
   -2.5408   -0.6584   -2.4845 O   0  0  0  0  0  2           0  0  0
   -0.0000    0.0000    0.0000 N   0  0  1  0  0  3           0  0  0
    1.6601    2.4913    0.0915 N   0  0  2  0  0  3           0  0  0
   -1.7482    0.8662    1.5593 C   0  0  0  0  0  4           0  0  0
   -3.4469    3.8089   -4.3479 C   0  0  0  0  0  4           0  0  0
   -0.6720   -0.0000    1.2708 C   0  0  0  0  0  4           0  0  0
   -3.1525    2.0910   -2.1254 C   0  0  0  0  0  4           0  0  0
   -2.3695    0.8162    2.8188 C   0  0  0  0  0  4           0  0  0
   -2.1875    3.6001   -3.7815 C   0  0  0  0  0  4           0  0  0
   -4.5571    3.1625   -3.7978 C   0  0  0  0  0  4           0  0  0
   -0.2460   -0.8902    2.2739 C   0  0  0  0  0  4           0  0  0
   -2.0454    2.7520   -2.6778 C   0  0  0  0  0  4           0  0  0
   -4.4128    2.3140   -2.6972 C   0  0  0  0  0  4           0  0  0
   -1.9421   -0.0869    3.7892 C   0  0  0  0  0  4           0  0  0
   -0.8783   -0.9370    3.5179 C   0  0  0  0  0  4           0  0  0
   -2.9641    1.1891   -0.9322 C   0  0  1  0  0  4           0  0  0
   -3.8505   -0.9965   -2.6415 C   0  0  0  0  0  4           0  0  0
   -0.6594    0.0873   -1.2394 C   0  0  0  0  0  4           0  0  0
   -2.1765   -0.1084   -1.2167 C   0  0  2  0  0  4           0  0  0
   -2.5803    5.2693   -5.9841 C   0  0  0  0  0  4           0  0  0
    1.4514   -0.0000   -0.0000 C   0  0  0  0  0  4           0  0  0
    2.0519    1.2178    0.7031 C   0  0  0  0  0  4           0  0  0
    2.0845    2.5744   -1.3081 C   0  0  0  0  0  4           0  0  0
    2.2248    3.6090    0.8512 C   0  0  0  0  0  4           0  0  0
   -4.0636   -1.5625   -4.0124 C   0  0  0  0  0  4           0  0  0
  1  8  1  0     0  0
  1 20  1  0     0  0
  2  9  1  0     0  0
  2 24  1  0     0  0
  3 21  2  0     0  0
  4 22  2  0     0  0
  5 21  1  0     0  0
  5 23  1  0     0  0
  6 10  1  0     0  0
  6 22  1  0     0  0
  6 25  1  0     0  0
  7 26  1  0     0  0
  7 27  1  0     0  0
  7 28  1  0     0  0
  8 10  2  0     0  0
  8 12  1  0     0  0
  9 13  2  0     0  0
  9 14  1  0     0  0
 10 15  1  0     0  0
 11 16  2  0     0  0
 11 17  1  0     0  0
 11 20  1  0     0  0
 12 18  2  0     0  0
 13 16  1  0     0  0
 14 17  2  0     0  0
 15 19  2  0     0  0
 18 19  1  0     0  0
 20 23  1  0     0  0
 21 29  1  0     0  0
 22 23  1  0     0  0
 25 26  1  0     0  0
M  END
> <standard_type>
pIC50

> <# Confs.>
25

> <canonical_smiles>
O=C1[C@@H]([C@@H](SC2=C(N1CCN(C)C)C=CC=C2)C3=CC=C(OC)C=C3)OC(C)=O

> <standard_relation>
=

> <Publication_ID>
nan

> <predicted_activity_value>
nan

> <actual_activity_value>
-1.2380461031287955

> <Compound>
Diltiazem

> <standard_units>
uM

> hash
1563956001557007101

$$$$
13
XXILIB    08252103503D 0   0.00000     0.00000

 29 31  0     1  0            999 V2000
   -2.5056    1.9377    0.3395 S   0  0  0  0  0  2           0  0  0
   -3.9828    3.9018   -5.7130 O   0  0  0  0  0  2           0  0  0
   -0.8647   -2.6373   -2.1287 O   0  0  0  0  0  2           0  0  0
   -0.0630    0.0669   -2.3232 O   0  0  0  0  0  2           0  0  0
   -2.5002   -1.0391   -2.4449 O   0  0  0  0  0  2           0  0  0
   -0.0000    0.0000    0.0000 N   0  0  1  0  0  3           0  0  0
    3.5180    1.2209    0.7049 N   0  0  2  0  0  3           0  0  0
   -1.8500    0.7483    1.5037 C   0  0  0  0  0  4           0  0  0
   -3.8463    3.1389   -4.5883 C   0  0  0  0  0  4           0  0  0
   -0.6760    0.0000    1.2685 C   0  0  0  0  0  4           0  0  0
   -3.3157    1.6428   -2.2522 C   0  0  0  0  0  4           0  0  0
   -2.4721    0.6989    2.7629 C   0  0  0  0  0  4           0  0  0
   -4.8623    2.3974   -3.9813 C   0  0  0  0  0  4           0  0  0
   -2.5658    3.1258   -4.0289 C   0  0  0  0  0  4           0  0  0
   -0.1436   -0.7532    2.3320 C   0  0  0  0  0  4           0  0  0
   -4.5954    1.6538   -2.8266 C   0  0  0  0  0  4           0  0  0
   -2.3018    2.3845   -2.8743 C   0  0  0  0  0  4           0  0  0
   -1.9434   -0.0799    3.7893 C   0  0  0  0  0  4           0  0  0
   -0.7755   -0.7998    3.5758 C   0  0  0  0  0  4           0  0  0
   -3.0617    0.8255   -1.0111 C   0  0  1  0  0  4           0  0  0
   -1.7792   -2.1456   -2.7767 C   0  0  0  0  0  4           0  0  0
   -0.6520   -0.0548   -1.2449 C   0  0  0  0  0  4           0  0  0
   -2.1460   -0.3970   -1.2182 C   0  0  2  0  0  4           0  0  0
   -5.2886    3.9156   -6.2847 C   0  0  0  0  0  4           0  0  0
    1.4514   -0.0000    0.0000 C   0  0  0  0  0  4           0  0  0
    2.0519    1.2178    0.7031 C   0  0  0  0  0  4           0  0  0
    4.0624    0.0437    1.3859 C   0  0  0  0  0  4           0  0  0
    4.0177    2.4413    1.3422 C   0  0  0  0  0  4           0  0  0
   -2.2660   -2.6901   -4.0850 C   0  0  0  0  0  4           0  0  0
  1  8  1  0     0  0
  1 20  1  0     0  0
  2  9  1  0     0  0
  2 24  1  0     0  0
  3 21  2  0     0  0
  4 22  2  0     0  0
  5 21  1  0     0  0
  5 23  1  0     0  0
  6 10  1  0     0  0
  6 22  1  0     0  0
  6 25  1  0     0  0
  7 26  1  0     0  0
  7 27  1  0     0  0
  7 28  1  0     0  0
  8 10  2  0     0  0
  8 12  1  0     0  0
  9 13  2  0     0  0
  9 14  1  0     0  0
 10 15  1  0     0  0
 11 16  2  0     0  0
 11 17  1  0     0  0
 11 20  1  0     0  0
 12 18  2  0     0  0
 13 16  1  0     0  0
 14 17  2  0     0  0
 15 19  2  0     0  0
 18 19  1  0     0  0
 20 23  1  0     0  0
 21 29  1  0     0  0
 22 23  1  0     0  0
 25 26  1  0     0  0
M  END
> <standard_type>
pIC50

> <# Confs.>
25

> <canonical_smiles>
O=C1[C@@H]([C@@H](SC2=C(N1CCN(C)C)C=CC=C2)C3=CC=C(OC)C=C3)OC(C)=O

> <standard_relation>
=

> <Publication_ID>
nan

> <predicted_activity_value>
nan

> <actual_activity_value>
-1.2380461031287955

> <Compound>
Diltiazem

> <standard_units>
uM

> hash
1563956001557007101

$$$$
13
XXILIB    08252103503D 0   0.00000     0.00000

 29 31  0     1  0            999 V2000
   -2.4661   -1.9905    0.3874 S   0  0  0  0  0  2           0  0  0
   -8.6020   -0.1384   -1.1865 O   0  0  0  0  0  2           0  0  0
   -0.9783    2.7997   -1.3140 O   0  0  0  0  0  2           0  0  0
   -0.0595   -0.0968   -2.3193 O   0  0  0  0  0  2           0  0  0
   -2.5402    1.3802   -0.3789 O   0  0  0  0  0  2           0  0  0
   -0.0000    0.0000    0.0000 N   0  0  1  0  0  3           0  0  0
    3.5180    1.2209   -0.7049 N   0  0  2  0  0  3           0  0  0
   -1.8281   -0.7642    1.5198 C   0  0  0  0  0  4           0  0  0
   -7.2500   -0.2961   -1.0727 C   0  0  0  0  0  4           0  0  0
   -0.6693    0.0000    1.2700 C   0  0  0  0  0  4           0  0  0
   -4.4592   -0.7304   -1.0752 C   0  0  0  0  0  4           0  0  0
   -2.4501   -0.6985    2.7790 C   0  0  0  0  0  4           0  0  0
   -6.4701    0.1306    0.0046 C   0  0  0  0  0  4           0  0  0
   -6.6331   -0.9442   -2.1461 C   0  0  0  0  0  4           0  0  0
   -0.1495    0.7849    2.3176 C   0  0  0  0  0  4           0  0  0
   -5.0885   -0.0899    0.0024 C   0  0  0  0  0  4           0  0  0
   -5.2528   -1.1612   -2.1475 C   0  0  0  0  0  4           0  0  0
   -1.9369    0.1120    3.7886 C   0  0  0  0  0  4           0  0  0
   -0.7816    0.8469    3.5605 C   0  0  0  0  0  4           0  0  0
   -2.9691   -0.9572   -1.0416 C   0  0  1  0  0  4           0  0  0
   -1.8701    2.5582   -0.5114 C   0  0  0  0  0  4           0  0  0
   -0.6492    0.0471   -1.2419 C   0  0  0  0  0  4           0  0  0
   -2.1566    0.3300   -1.2691 C   0  0  2  0  0  4           0  0  0
   -9.2323    0.5222   -0.0919 C   0  0  0  0  0  4           0  0  0
    1.4514    0.0000    0.0000 C   0  0  0  0  0  4           0  0  0
    2.0519    1.2178   -0.7031 C   0  0  0  0  0  4           0  0  0
    4.0624    1.2220    0.6551 C   0  0  0  0  0  4           0  0  0
    4.0177    2.3830   -1.4431 C   0  0  0  0  0  4           0  0  0
   -2.3819    3.5444    0.4938 C   0  0  0  0  0  4           0  0  0
  1  8  1  0     0  0
  1 20  1  0     0  0
  2  9  1  0     0  0
  2 24  1  0     0  0
  3 21  2  0     0  0
  4 22  2  0     0  0
  5 21  1  0     0  0
  5 23  1  0     0  0
  6 10  1  0     0  0
  6 22  1  0     0  0
  6 25  1  0     0  0
  7 26  1  0     0  0
  7 27  1  0     0  0
  7 28  1  0     0  0
  8 10  2  0     0  0
  8 12  1  0     0  0
  9 13  2  0     0  0
  9 14  1  0     0  0
 10 15  1  0     0  0
 11 16  2  0     0  0
 11 17  1  0     0  0
 11 20  1  0     0  0
 12 18  2  0     0  0
 13 16  1  0     0  0
 14 17  2  0     0  0
 15 19  2  0     0  0
 18 19  1  0     0  0
 20 23  1  0     0  0
 21 29  1  0     0  0
 22 23  1  0     0  0
 25 26  1  0     0  0
M  END
> <standard_type>
pIC50

> <# Confs.>
25

> <canonical_smiles>
O=C1[C@@H]([C@@H](SC2=C(N1CCN(C)C)C=CC=C2)C3=CC=C(OC)C=C3)OC(C)=O

> <standard_relation>
=

> <Publication_ID>
nan

> <predicted_activity_value>
nan

> <actual_activity_value>
-1.2380461031287955

> <Compound>
Diltiazem

> <standard_units>
uM

> hash
1563956001557007101

$$$$
13
XXILIB    08252103503D 0   0.00000     0.00000

 29 31  0     1  0            999 V2000
   -2.4661   -1.9905    0.3874 S   0  0  0  0  0  2           0  0  0
   -8.5913   -0.0630   -1.1504 O   0  0  0  0  0  2           0  0  0
   -0.9783    2.7997   -1.3140 O   0  0  0  0  0  2           0  0  0
   -0.0595   -0.0968   -2.3193 O   0  0  0  0  0  2           0  0  0
   -2.5402    1.3802   -0.3789 O   0  0  0  0  0  2           0  0  0
   -0.0000    0.0000    0.0000 N   0  0  1  0  0  3           0  0  0
    1.6601   -2.4913   -0.0915 N   0  0  2  0  0  3           0  0  0
   -1.8281   -0.7642    1.5198 C   0  0  0  0  0  4           0  0  0
   -7.2499   -0.3153   -1.2036 C   0  0  0  0  0  4           0  0  0
   -0.6693   -0.0000    1.2700 C   0  0  0  0  0  4           0  0  0
   -4.4592   -0.7304   -1.0752 C   0  0  0  0  0  4           0  0  0
   -2.4501   -0.6985    2.7790 C   0  0  0  0  0  4           0  0  0
   -6.5856   -0.9617   -2.2482 C   0  0  0  0  0  4           0  0  0
   -6.5161    0.1273   -0.0997 C   0  0  0  0  0  4           0  0  0
   -0.1495    0.7849    2.3176 C   0  0  0  0  0  4           0  0  0
   -5.2024   -1.1621   -2.1838 C   0  0  0  0  0  4           0  0  0
   -5.1352   -0.0760   -0.0361 C   0  0  0  0  0  4           0  0  0
   -1.9369    0.1120    3.7886 C   0  0  0  0  0  4           0  0  0
   -0.7816    0.8469    3.5605 C   0  0  0  0  0  4           0  0  0
   -2.9691   -0.9572   -1.0416 C   0  0  1  0  0  4           0  0  0
   -1.8701    2.5582   -0.5114 C   0  0  0  0  0  4           0  0  0
   -0.6492    0.0471   -1.2419 C   0  0  0  0  0  4           0  0  0
   -2.1566    0.3300   -1.2691 C   0  0  2  0  0  4           0  0  0
   -9.3408   -0.5136   -2.2761 C   0  0  0  0  0  4           0  0  0
    1.4514    0.0000    0.0000 C   0  0  0  0  0  4           0  0  0
    2.0519   -1.2178   -0.7031 C   0  0  0  0  0  4           0  0  0
    2.0845   -2.5744    1.3081 C   0  0  0  0  0  4           0  0  0
    2.2248   -3.6090   -0.8512 C   0  0  0  0  0  4           0  0  0
   -2.3819    3.5444    0.4938 C   0  0  0  0  0  4           0  0  0
  1  8  1  0     0  0
  1 20  1  0     0  0
  2  9  1  0     0  0
  2 24  1  0     0  0
  3 21  2  0     0  0
  4 22  2  0     0  0
  5 21  1  0     0  0
  5 23  1  0     0  0
  6 10  1  0     0  0
  6 22  1  0     0  0
  6 25  1  0     0  0
  7 26  1  0     0  0
  7 27  1  0     0  0
  7 28  1  0     0  0
  8 10  2  0     0  0
  8 12  1  0     0  0
  9 13  2  0     0  0
  9 14  1  0     0  0
 10 15  1  0     0  0
 11 16  2  0     0  0
 11 17  1  0     0  0
 11 20  1  0     0  0
 12 18  2  0     0  0
 13 16  1  0     0  0
 14 17  2  0     0  0
 15 19  2  0     0  0
 18 19  1  0     0  0
 20 23  1  0     0  0
 21 29  1  0     0  0
 22 23  1  0     0  0
 25 26  1  0     0  0
M  END
> <standard_type>
pIC50

> <# Confs.>
25

> <canonical_smiles>
O=C1[C@@H]([C@@H](SC2=C(N1CCN(C)C)C=CC=C2)C3=CC=C(OC)C=C3)OC(C)=O

> <standard_relation>
=

> <Publication_ID>
nan

> <predicted_activity_value>
nan

> <actual_activity_value>
-1.2380461031287955

> <Compound>
Diltiazem

> <standard_units>
uM

> hash
1563956001557007101

$$$$
13
XXILIB    08252103503D 0   0.00000     0.00000

 29 31  0     1  0            999 V2000
   -2.2757    2.1741    0.4600 S   0  0  0  0  0  2           0  0  0
   -3.7120    4.6092   -5.4225 O   0  0  0  0  0  2           0  0  0
   -4.7368   -0.8746   -1.8064 O   0  0  0  0  0  2           0  0  0
   -0.0678    0.2402   -2.3123 O   0  0  0  0  0  2           0  0  0
   -2.5408   -0.6584   -2.4845 O   0  0  0  0  0  2           0  0  0
   -0.0000    0.0000    0.0000 N   0  0  1  0  0  3           0  0  0
    3.5180   -1.2209   -0.7049 N   0  0  2  0  0  3           0  0  0
   -1.7482    0.8662    1.5593 C   0  0  0  0  0  4           0  0  0
   -3.4469    3.8089   -4.3479 C   0  0  0  0  0  4           0  0  0
   -0.6720   -0.0000    1.2708 C   0  0  0  0  0  4           0  0  0
   -3.1525    2.0910   -2.1254 C   0  0  0  0  0  4           0  0  0
   -2.3695    0.8162    2.8188 C   0  0  0  0  0  4           0  0  0
   -2.1875    3.6001   -3.7815 C   0  0  0  0  0  4           0  0  0
   -4.5571    3.1625   -3.7978 C   0  0  0  0  0  4           0  0  0
   -0.2460   -0.8902    2.2739 C   0  0  0  0  0  4           0  0  0
   -2.0454    2.7520   -2.6778 C   0  0  0  0  0  4           0  0  0
   -4.4128    2.3140   -2.6972 C   0  0  0  0  0  4           0  0  0
   -1.9421   -0.0869    3.7892 C   0  0  0  0  0  4           0  0  0
   -0.8783   -0.9370    3.5179 C   0  0  0  0  0  4           0  0  0
   -2.9641    1.1891   -0.9322 C   0  0  1  0  0  4           0  0  0
   -3.8505   -0.9965   -2.6415 C   0  0  0  0  0  4           0  0  0
   -0.6594    0.0873   -1.2394 C   0  0  0  0  0  4           0  0  0
   -2.1765   -0.1084   -1.2167 C   0  0  2  0  0  4           0  0  0
   -2.5803    5.2693   -5.9841 C   0  0  0  0  0  4           0  0  0
    1.4514    0.0000    0.0000 C   0  0  0  0  0  4           0  0  0
    2.0519   -1.2178   -0.7031 C   0  0  0  0  0  4           0  0  0
    4.0574   -2.4004   -1.3859 C   0  0  0  0  0  4           0  0  0
    4.0229   -1.1636    0.6688 C   0  0  0  0  0  4           0  0  0
   -4.0636   -1.5625   -4.0124 C   0  0  0  0  0  4           0  0  0
  1  8  1  0     0  0
  1 20  1  0     0  0
  2  9  1  0     0  0
  2 24  1  0     0  0
  3 21  2  0     0  0
  4 22  2  0     0  0
  5 21  1  0     0  0
  5 23  1  0     0  0
  6 10  1  0     0  0
  6 22  1  0     0  0
  6 25  1  0     0  0
  7 26  1  0     0  0
  7 27  1  0     0  0
  7 28  1  0     0  0
  8 10  2  0     0  0
  8 12  1  0     0  0
  9 13  2  0     0  0
  9 14  1  0     0  0
 10 15  1  0     0  0
 11 16  2  0     0  0
 11 17  1  0     0  0
 11 20  1  0     0  0
 12 18  2  0     0  0
 13 16  1  0     0  0
 14 17  2  0     0  0
 15 19  2  0     0  0
 18 19  1  0     0  0
 20 23  1  0     0  0
 21 29  1  0     0  0
 22 23  1  0     0  0
 25 26  1  0     0  0
M  END
> <standard_type>
pIC50

> <# Confs.>
25

> <canonical_smiles>
O=C1[C@@H]([C@@H](SC2=C(N1CCN(C)C)C=CC=C2)C3=CC=C(OC)C=C3)OC(C)=O

> <standard_relation>
=

> <Publication_ID>
nan

> <predicted_activity_value>
nan

> <actual_activity_value>
-1.2380461031287955

> <Compound>
Diltiazem

> <standard_units>
uM

> hash
1563956001557007101

$$$$
13
XXILIB    08252103503D 0   0.00000     0.00000

 29 31  0     1  0            999 V2000
   -2.5056    1.9377    0.3395 S   0  0  0  0  0  2           0  0  0
   -3.9828    3.9018   -5.7130 O   0  0  0  0  0  2           0  0  0
   -4.6443   -1.4158   -1.6770 O   0  0  0  0  0  2           0  0  0
   -0.0630    0.0669   -2.3232 O   0  0  0  0  0  2           0  0  0
   -2.5002   -1.0391   -2.4449 O   0  0  0  0  0  2           0  0  0
   -0.0000    0.0000    0.0000 N   0  0  1  0  0  3           0  0  0
    3.5180    1.2209    0.7049 N   0  0  2  0  0  3           0  0  0
   -1.8500    0.7483    1.5037 C   0  0  0  0  0  4           0  0  0
   -3.8463    3.1389   -4.5883 C   0  0  0  0  0  4           0  0  0
   -0.6760    0.0000    1.2685 C   0  0  0  0  0  4           0  0  0
   -3.3157    1.6428   -2.2522 C   0  0  0  0  0  4           0  0  0
   -2.4721    0.6989    2.7629 C   0  0  0  0  0  4           0  0  0
   -4.8623    2.3974   -3.9813 C   0  0  0  0  0  4           0  0  0
   -2.5658    3.1258   -4.0289 C   0  0  0  0  0  4           0  0  0
   -0.1436   -0.7532    2.3320 C   0  0  0  0  0  4           0  0  0
   -4.5954    1.6538   -2.8266 C   0  0  0  0  0  4           0  0  0
   -2.3018    2.3845   -2.8743 C   0  0  0  0  0  4           0  0  0
   -1.9434   -0.0799    3.7893 C   0  0  0  0  0  4           0  0  0
   -0.7755   -0.7998    3.5758 C   0  0  0  0  0  4           0  0  0
   -3.0617    0.8255   -1.0111 C   0  0  1  0  0  4           0  0  0
   -3.7783   -1.4996   -2.5377 C   0  0  0  0  0  4           0  0  0
   -0.6520   -0.0548   -1.2449 C   0  0  0  0  0  4           0  0  0
   -2.1460   -0.3970   -1.2182 C   0  0  2  0  0  4           0  0  0
   -5.2886    3.9156   -6.2847 C   0  0  0  0  0  4           0  0  0
    1.4514   -0.0000    0.0000 C   0  0  0  0  0  4           0  0  0
    2.0519    1.2178    0.7031 C   0  0  0  0  0  4           0  0  0
    4.0624    0.0437    1.3859 C   0  0  0  0  0  4           0  0  0
    4.0177    2.4413    1.3422 C   0  0  0  0  0  4           0  0  0
   -3.9838   -2.1491   -3.8722 C   0  0  0  0  0  4           0  0  0
  1  8  1  0     0  0
  1 20  1  0     0  0
  2  9  1  0     0  0
  2 24  1  0     0  0
  3 21  2  0     0  0
  4 22  2  0     0  0
  5 21  1  0     0  0
  5 23  1  0     0  0
  6 10  1  0     0  0
  6 22  1  0     0  0
  6 25  1  0     0  0
  7 26  1  0     0  0
  7 27  1  0     0  0
  7 28  1  0     0  0
  8 10  2  0     0  0
  8 12  1  0     0  0
  9 13  2  0     0  0
  9 14  1  0     0  0
 10 15  1  0     0  0
 11 16  2  0     0  0
 11 17  1  0     0  0
 11 20  1  0     0  0
 12 18  2  0     0  0
 13 16  1  0     0  0
 14 17  2  0     0  0
 15 19  2  0     0  0
 18 19  1  0     0  0
 20 23  1  0     0  0
 21 29  1  0     0  0
 22 23  1  0     0  0
 25 26  1  0     0  0
M  END
> <standard_type>
pIC50

> <# Confs.>
25

> <canonical_smiles>
O=C1[C@@H]([C@@H](SC2=C(N1CCN(C)C)C=CC=C2)C3=CC=C(OC)C=C3)OC(C)=O

> <standard_relation>
=

> <Publication_ID>
nan

> <predicted_activity_value>
nan

> <actual_activity_value>
-1.2380461031287955

> <Compound>
Diltiazem

> <standard_units>
uM

> hash
1563956001557007101

$$$$
13
XXILIB    08252103503D 0   0.00000     0.00000

 29 31  0     1  0            999 V2000
   -2.5056    1.9377    0.3395 S   0  0  0  0  0  2           0  0  0
   -4.0589    3.9232   -5.6834 O   0  0  0  0  0  2           0  0  0
   -0.8647   -2.6373   -2.1287 O   0  0  0  0  0  2           0  0  0
   -0.0630    0.0669   -2.3232 O   0  0  0  0  0  2           0  0  0
   -2.5002   -1.0391   -2.4449 O   0  0  0  0  0  2           0  0  0
   -0.0000    0.0000    0.0000 N   0  0  1  0  0  3           0  0  0
    1.6601    2.4913    0.0915 N   0  0  2  0  0  3           0  0  0
   -1.8500    0.7483    1.5037 C   0  0  0  0  0  4           0  0  0
   -3.7364    3.2086   -4.5649 C   0  0  0  0  0  4           0  0  0
   -0.6760   -0.0000    1.2685 C   0  0  0  0  0  4           0  0  0
   -3.3157    1.6428   -2.2522 C   0  0  0  0  0  4           0  0  0
   -2.4721    0.6989    2.7629 C   0  0  0  0  0  4           0  0  0
   -2.4742    3.1579   -3.9691 C   0  0  0  0  0  4           0  0  0
   -4.7867    2.4808   -3.9992 C   0  0  0  0  0  4           0  0  0
   -0.1436   -0.7532    2.3320 C   0  0  0  0  0  4           0  0  0
   -2.2700    2.3848   -2.8210 C   0  0  0  0  0  4           0  0  0
   -4.5801    1.7074   -2.8541 C   0  0  0  0  0  4           0  0  0
   -1.9434   -0.0799    3.7893 C   0  0  0  0  0  4           0  0  0
   -0.7755   -0.7998    3.5758 C   0  0  0  0  0  4           0  0  0
   -3.0617    0.8255   -1.0111 C   0  0  1  0  0  4           0  0  0
   -1.7792   -2.1456   -2.7767 C   0  0  0  0  0  4           0  0  0
   -0.6520   -0.0548   -1.2449 C   0  0  0  0  0  4           0  0  0
   -2.1460   -0.3970   -1.2182 C   0  0  2  0  0  4           0  0  0
   -2.9883    4.6663   -6.2610 C   0  0  0  0  0  4           0  0  0
    1.4514   -0.0000   -0.0000 C   0  0  0  0  0  4           0  0  0
    2.0519    1.2178    0.7031 C   0  0  0  0  0  4           0  0  0
    2.0845    2.5744   -1.3081 C   0  0  0  0  0  4           0  0  0
    2.2248    3.6090    0.8512 C   0  0  0  0  0  4           0  0  0
   -2.2660   -2.6901   -4.0850 C   0  0  0  0  0  4           0  0  0
  1  8  1  0     0  0
  1 20  1  0     0  0
  2  9  1  0     0  0
  2 24  1  0     0  0
  3 21  2  0     0  0
  4 22  2  0     0  0
  5 21  1  0     0  0
  5 23  1  0     0  0
  6 10  1  0     0  0
  6 22  1  0     0  0
  6 25  1  0     0  0
  7 26  1  0     0  0
  7 27  1  0     0  0
  7 28  1  0     0  0
  8 10  2  0     0  0
  8 12  1  0     0  0
  9 13  2  0     0  0
  9 14  1  0     0  0
 10 15  1  0     0  0
 11 16  2  0     0  0
 11 17  1  0     0  0
 11 20  1  0     0  0
 12 18  2  0     0  0
 13 16  1  0     0  0
 14 17  2  0     0  0
 15 19  2  0     0  0
 18 19  1  0     0  0
 20 23  1  0     0  0
 21 29  1  0     0  0
 22 23  1  0     0  0
 25 26  1  0     0  0
M  END
> <standard_type>
pIC50

> <# Confs.>
25

> <canonical_smiles>
O=C1[C@@H]([C@@H](SC2=C(N1CCN(C)C)C=CC=C2)C3=CC=C(OC)C=C3)OC(C)=O

> <standard_relation>
=

> <Publication_ID>
nan

> <predicted_activity_value>
nan

> <actual_activity_value>
-1.2380461031287955

> <Compound>
Diltiazem

> <standard_units>
uM

> hash
1563956001557007101

$$$$
13
XXILIB    08252103503D 0   0.00000     0.00000

 29 31  0     1  0            999 V2000
   -2.2757    2.1741    0.4600 S   0  0  0  0  0  2           0  0  0
   -3.7120    4.6092   -5.4225 O   0  0  0  0  0  2           0  0  0
   -1.0666   -2.4109   -2.1945 O   0  0  0  0  0  2           0  0  0
   -0.0678    0.2402   -2.3123 O   0  0  0  0  0  2           0  0  0
   -2.5408   -0.6584   -2.4845 O   0  0  0  0  0  2           0  0  0
   -0.0000    0.0000    0.0000 N   0  0  1  0  0  3           0  0  0
    3.5180   -1.2209   -0.7049 N   0  0  2  0  0  3           0  0  0
   -1.7482    0.8662    1.5593 C   0  0  0  0  0  4           0  0  0
   -3.4469    3.8089   -4.3479 C   0  0  0  0  0  4           0  0  0
   -0.6720   -0.0000    1.2708 C   0  0  0  0  0  4           0  0  0
   -3.1525    2.0910   -2.1254 C   0  0  0  0  0  4           0  0  0
   -2.3695    0.8162    2.8188 C   0  0  0  0  0  4           0  0  0
   -2.1875    3.6001   -3.7815 C   0  0  0  0  0  4           0  0  0
   -4.5571    3.1625   -3.7978 C   0  0  0  0  0  4           0  0  0
   -0.2460   -0.8902    2.2739 C   0  0  0  0  0  4           0  0  0
   -2.0454    2.7520   -2.6778 C   0  0  0  0  0  4           0  0  0
   -4.4128    2.3140   -2.6972 C   0  0  0  0  0  4           0  0  0
   -1.9421   -0.0869    3.7892 C   0  0  0  0  0  4           0  0  0
   -0.8783   -0.9370    3.5179 C   0  0  0  0  0  4           0  0  0
   -2.9641    1.1891   -0.9322 C   0  0  1  0  0  4           0  0  0
   -1.9093   -1.8091   -2.8468 C   0  0  0  0  0  4           0  0  0
   -0.6594    0.0873   -1.2394 C   0  0  0  0  0  4           0  0  0
   -2.1765   -0.1084   -1.2167 C   0  0  2  0  0  4           0  0  0
   -2.5803    5.2693   -5.9841 C   0  0  0  0  0  4           0  0  0
    1.4514    0.0000    0.0000 C   0  0  0  0  0  4           0  0  0
    2.0519   -1.2178   -0.7031 C   0  0  0  0  0  4           0  0  0
    4.0574   -2.4004   -1.3859 C   0  0  0  0  0  4           0  0  0
    4.0229   -1.1636    0.6688 C   0  0  0  0  0  4           0  0  0
   -2.3940   -2.2463   -4.1956 C   0  0  0  0  0  4           0  0  0
  1  8  1  0     0  0
  1 20  1  0     0  0
  2  9  1  0     0  0
  2 24  1  0     0  0
  3 21  2  0     0  0
  4 22  2  0     0  0
  5 21  1  0     0  0
  5 23  1  0     0  0
  6 10  1  0     0  0
  6 22  1  0     0  0
  6 25  1  0     0  0
  7 26  1  0     0  0
  7 27  1  0     0  0
  7 28  1  0     0  0
  8 10  2  0     0  0
  8 12  1  0     0  0
  9 13  2  0     0  0
  9 14  1  0     0  0
 10 15  1  0     0  0
 11 16  2  0     0  0
 11 17  1  0     0  0
 11 20  1  0     0  0
 12 18  2  0     0  0
 13 16  1  0     0  0
 14 17  2  0     0  0
 15 19  2  0     0  0
 18 19  1  0     0  0
 20 23  1  0     0  0
 21 29  1  0     0  0
 22 23  1  0     0  0
 25 26  1  0     0  0
M  END
> <standard_type>
pIC50

> <# Confs.>
25

> <canonical_smiles>
O=C1[C@@H]([C@@H](SC2=C(N1CCN(C)C)C=CC=C2)C3=CC=C(OC)C=C3)OC(C)=O

> <standard_relation>
=

> <Publication_ID>
nan

> <predicted_activity_value>
nan

> <actual_activity_value>
-1.2380461031287955

> <Compound>
Diltiazem

> <standard_units>
uM

> hash
1563956001557007101

$$$$
13
XXILIB    08252103503D 0   0.00000     0.00000

 29 31  0     1  0            999 V2000
   -2.4661   -1.9905    0.3874 S   0  0  0  0  0  2           0  0  0
   -8.5913   -0.0630   -1.1504 O   0  0  0  0  0  2           0  0  0
   -0.9783    2.7997   -1.3140 O   0  0  0  0  0  2           0  0  0
   -0.0595   -0.0968   -2.3193 O   0  0  0  0  0  2           0  0  0
   -2.5402    1.3802   -0.3789 O   0  0  0  0  0  2           0  0  0
   -0.0000    0.0000    0.0000 N   0  0  1  0  0  3           0  0  0
    3.5180   -1.2209    0.7049 N   0  0  2  0  0  3           0  0  0
   -1.8281   -0.7642    1.5198 C   0  0  0  0  0  4           0  0  0
   -7.2499   -0.3153   -1.2036 C   0  0  0  0  0  4           0  0  0
   -0.6693   -0.0000    1.2700 C   0  0  0  0  0  4           0  0  0
   -4.4592   -0.7304   -1.0752 C   0  0  0  0  0  4           0  0  0
   -2.4501   -0.6985    2.7790 C   0  0  0  0  0  4           0  0  0
   -6.5856   -0.9617   -2.2482 C   0  0  0  0  0  4           0  0  0
   -6.5161    0.1273   -0.0997 C   0  0  0  0  0  4           0  0  0
   -0.1495    0.7849    2.3176 C   0  0  0  0  0  4           0  0  0
   -5.2024   -1.1621   -2.1838 C   0  0  0  0  0  4           0  0  0
   -5.1352   -0.0760   -0.0361 C   0  0  0  0  0  4           0  0  0
   -1.9369    0.1120    3.7886 C   0  0  0  0  0  4           0  0  0
   -0.7816    0.8469    3.5605 C   0  0  0  0  0  4           0  0  0
   -2.9691   -0.9572   -1.0416 C   0  0  1  0  0  4           0  0  0
   -1.8701    2.5582   -0.5114 C   0  0  0  0  0  4           0  0  0
   -0.6492    0.0471   -1.2419 C   0  0  0  0  0  4           0  0  0
   -2.1566    0.3300   -1.2691 C   0  0  2  0  0  4           0  0  0
   -9.3408   -0.5136   -2.2761 C   0  0  0  0  0  4           0  0  0
    1.4514    0.0000   -0.0000 C   0  0  0  0  0  4           0  0  0
    2.0519   -1.2178    0.7031 C   0  0  0  0  0  4           0  0  0
    4.0624   -0.0437    1.3859 C   0  0  0  0  0  4           0  0  0
    4.0226   -1.2802   -0.6688 C   0  0  0  0  0  4           0  0  0
   -2.3819    3.5444    0.4938 C   0  0  0  0  0  4           0  0  0
  1  8  1  0     0  0
  1 20  1  0     0  0
  2  9  1  0     0  0
  2 24  1  0     0  0
  3 21  2  0     0  0
  4 22  2  0     0  0
  5 21  1  0     0  0
  5 23  1  0     0  0
  6 10  1  0     0  0
  6 22  1  0     0  0
  6 25  1  0     0  0
  7 26  1  0     0  0
  7 27  1  0     0  0
  7 28  1  0     0  0
  8 10  2  0     0  0
  8 12  1  0     0  0
  9 13  2  0     0  0
  9 14  1  0     0  0
 10 15  1  0     0  0
 11 16  2  0     0  0
 11 17  1  0     0  0
 11 20  1  0     0  0
 12 18  2  0     0  0
 13 16  1  0     0  0
 14 17  2  0     0  0
 15 19  2  0     0  0
 18 19  1  0     0  0
 20 23  1  0     0  0
 21 29  1  0     0  0
 22 23  1  0     0  0
 25 26  1  0     0  0
M  END
> <standard_type>
pIC50

> <# Confs.>
25

> <canonical_smiles>
O=C1[C@@H]([C@@H](SC2=C(N1CCN(C)C)C=CC=C2)C3=CC=C(OC)C=C3)OC(C)=O

> <standard_relation>
=

> <Publication_ID>
nan

> <predicted_activity_value>
nan

> <actual_activity_value>
-1.2380461031287955

> <Compound>
Diltiazem

> <standard_units>
uM

> hash
1563956001557007101

$$$$
13
XXILIB    08252103503D 0   0.00000     0.00000

 29 31  0     1  0            999 V2000
   -2.5056    1.9377    0.3395 S   0  0  0  0  0  2           0  0  0
   -3.9828    3.9018   -5.7130 O   0  0  0  0  0  2           0  0  0
   -1.2589   -2.9334   -1.9978 O   0  0  0  0  0  2           0  0  0
   -0.0630    0.0669   -2.3232 O   0  0  0  0  0  2           0  0  0
   -2.5002   -1.0391   -2.4449 O   0  0  0  0  0  2           0  0  0
   -0.0000    0.0000    0.0000 N   0  0  1  0  0  3           0  0  0
    3.5180    1.2209   -0.7049 N   0  0  2  0  0  3           0  0  0
   -1.8500    0.7483    1.5037 C   0  0  0  0  0  4           0  0  0
   -3.8463    3.1389   -4.5883 C   0  0  0  0  0  4           0  0  0
   -0.6760    0.0000    1.2685 C   0  0  0  0  0  4           0  0  0
   -3.3157    1.6428   -2.2522 C   0  0  0  0  0  4           0  0  0
   -2.4721    0.6989    2.7629 C   0  0  0  0  0  4           0  0  0
   -4.8623    2.3974   -3.9813 C   0  0  0  0  0  4           0  0  0
   -2.5658    3.1258   -4.0289 C   0  0  0  0  0  4           0  0  0
   -0.1436   -0.7532    2.3320 C   0  0  0  0  0  4           0  0  0
   -4.5954    1.6538   -2.8266 C   0  0  0  0  0  4           0  0  0
   -2.3018    2.3845   -2.8743 C   0  0  0  0  0  4           0  0  0
   -1.9434   -0.0799    3.7893 C   0  0  0  0  0  4           0  0  0
   -0.7755   -0.7998    3.5758 C   0  0  0  0  0  4           0  0  0
   -3.0617    0.8255   -1.0111 C   0  0  1  0  0  4           0  0  0
   -1.7792   -2.1456   -2.7767 C   0  0  0  0  0  4           0  0  0
   -0.6520   -0.0548   -1.2449 C   0  0  0  0  0  4           0  0  0
   -2.1460   -0.3970   -1.2182 C   0  0  2  0  0  4           0  0  0
   -5.2886    3.9156   -6.2847 C   0  0  0  0  0  4           0  0  0
    1.4514    0.0000    0.0000 C   0  0  0  0  0  4           0  0  0
    2.0519    1.2178   -0.7031 C   0  0  0  0  0  4           0  0  0
    4.0624    1.2220    0.6551 C   0  0  0  0  0  4           0  0  0
    4.0177    2.3830   -1.4431 C   0  0  0  0  0  4           0  0  0
   -1.6998   -2.2664   -4.2680 C   0  0  0  0  0  4           0  0  0
  1  8  1  0     0  0
  1 20  1  0     0  0
  2  9  1  0     0  0
  2 24  1  0     0  0
  3 21  2  0     0  0
  4 22  2  0     0  0
  5 21  1  0     0  0
  5 23  1  0     0  0
  6 10  1  0     0  0
  6 22  1  0     0  0
  6 25  1  0     0  0
  7 26  1  0     0  0
  7 27  1  0     0  0
  7 28  1  0     0  0
  8 10  2  0     0  0
  8 12  1  0     0  0
  9 13  2  0     0  0
  9 14  1  0     0  0
 10 15  1  0     0  0
 11 16  2  0     0  0
 11 17  1  0     0  0
 11 20  1  0     0  0
 12 18  2  0     0  0
 13 16  1  0     0  0
 14 17  2  0     0  0
 15 19  2  0     0  0
 18 19  1  0     0  0
 20 23  1  0     0  0
 21 29  1  0     0  0
 22 23  1  0     0  0
 25 26  1  0     0  0
M  END
> <standard_type>
pIC50

> <# Confs.>
25

> <canonical_smiles>
O=C1[C@@H]([C@@H](SC2=C(N1CCN(C)C)C=CC=C2)C3=CC=C(OC)C=C3)OC(C)=O

> <standard_relation>
=

> <Publication_ID>
nan

> <predicted_activity_value>
nan

> <actual_activity_value>
-1.2380461031287955

> <Compound>
Diltiazem

> <standard_units>
uM

> hash
1563956001557007101

$$$$
13
XXILIB    08252103503D 0   0.00000     0.00000

 29 31  0     1  0            999 V2000
   -2.2757    2.1741    0.4600 S   0  0  0  0  0  2           0  0  0
   -3.6390    4.5819   -5.4547 O   0  0  0  0  0  2           0  0  0
   -4.7368   -0.8746   -1.8064 O   0  0  0  0  0  2           0  0  0
   -0.0678    0.2402   -2.3123 O   0  0  0  0  0  2           0  0  0
   -2.5408   -0.6584   -2.4845 O   0  0  0  0  0  2           0  0  0
   -0.0000    0.0000    0.0000 N   0  0  1  0  0  3           0  0  0
    1.6601    2.3097    0.9380 N   0  0  2  0  0  3           0  0  0
   -1.7482    0.8662    1.5593 C   0  0  0  0  0  4           0  0  0
   -3.5637    3.7519   -4.3725 C   0  0  0  0  0  4           0  0  0
   -0.6720    0.0000    1.2708 C   0  0  0  0  0  4           0  0  0
   -3.1525    2.0910   -2.1254 C   0  0  0  0  0  4           0  0  0
   -2.3695    0.8162    2.8188 C   0  0  0  0  0  4           0  0  0
   -4.6406    3.0864   -3.7825 C   0  0  0  0  0  4           0  0  0
   -2.2827    3.5805   -3.8409 C   0  0  0  0  0  4           0  0  0
   -0.2460   -0.8902    2.2739 C   0  0  0  0  0  4           0  0  0
   -4.4331    2.2609   -2.6721 C   0  0  0  0  0  4           0  0  0
   -2.0780    2.7577   -2.7304 C   0  0  0  0  0  4           0  0  0
   -1.9421   -0.0869    3.7892 C   0  0  0  0  0  4           0  0  0
   -0.8783   -0.9370    3.5179 C   0  0  0  0  0  4           0  0  0
   -2.9641    1.1891   -0.9322 C   0  0  1  0  0  4           0  0  0
   -3.8505   -0.9965   -2.6415 C   0  0  0  0  0  4           0  0  0
   -0.6594    0.0873   -1.2394 C   0  0  0  0  0  4           0  0  0
   -2.1765   -0.1084   -1.2167 C   0  0  2  0  0  4           0  0  0
   -4.9452    4.7570   -5.9981 C   0  0  0  0  0  4           0  0  0
    1.4514    0.0000   -0.0000 C   0  0  0  0  0  4           0  0  0
    2.0519    0.9039    1.0772 C   0  0  0  0  0  4           0  0  0
    2.0845    2.8666   -0.3487 C   0  0  0  0  0  4           0  0  0
    2.2248    3.1002    2.0342 C   0  0  0  0  0  4           0  0  0
   -4.0636   -1.5625   -4.0124 C   0  0  0  0  0  4           0  0  0
  1  8  1  0     0  0
  1 20  1  0     0  0
  2  9  1  0     0  0
  2 24  1  0     0  0
  3 21  2  0     0  0
  4 22  2  0     0  0
  5 21  1  0     0  0
  5 23  1  0     0  0
  6 10  1  0     0  0
  6 22  1  0     0  0
  6 25  1  0     0  0
  7 26  1  0     0  0
  7 27  1  0     0  0
  7 28  1  0     0  0
  8 10  2  0     0  0
  8 12  1  0     0  0
  9 13  2  0     0  0
  9 14  1  0     0  0
 10 15  1  0     0  0
 11 16  2  0     0  0
 11 17  1  0     0  0
 11 20  1  0     0  0
 12 18  2  0     0  0
 13 16  1  0     0  0
 14 17  2  0     0  0
 15 19  2  0     0  0
 18 19  1  0     0  0
 20 23  1  0     0  0
 21 29  1  0     0  0
 22 23  1  0     0  0
 25 26  1  0     0  0
M  END
> <standard_type>
pIC50

> <# Confs.>
25

> <canonical_smiles>
O=C1[C@@H]([C@@H](SC2=C(N1CCN(C)C)C=CC=C2)C3=CC=C(OC)C=C3)OC(C)=O

> <standard_relation>
=

> <Publication_ID>
nan

> <predicted_activity_value>
nan

> <actual_activity_value>
-1.2380461031287955

> <Compound>
Diltiazem

> <standard_units>
uM

> hash
1563956001557007101

$$$$
13
XXILIB    08252103503D 0   0.00000     0.00000

 29 31  0     1  0            999 V2000
   -2.4661   -1.9905    0.3874 S   0  0  0  0  0  2           0  0  0
   -8.6020   -0.1384   -1.1865 O   0  0  0  0  0  2           0  0  0
   -0.9783    2.7997   -1.3140 O   0  0  0  0  0  2           0  0  0
   -0.0595   -0.0968   -2.3193 O   0  0  0  0  0  2           0  0  0
   -2.5402    1.3802   -0.3789 O   0  0  0  0  0  2           0  0  0
   -0.0000    0.0000    0.0000 N   0  0  1  0  0  3           0  0  0
    1.6601   -2.4913    0.0915 N   0  0  2  0  0  3           0  0  0
   -1.8281   -0.7642    1.5198 C   0  0  0  0  0  4           0  0  0
   -7.2500   -0.2961   -1.0727 C   0  0  0  0  0  4           0  0  0
   -0.6693    0.0000    1.2700 C   0  0  0  0  0  4           0  0  0
   -4.4592   -0.7304   -1.0752 C   0  0  0  0  0  4           0  0  0
   -2.4501   -0.6985    2.7790 C   0  0  0  0  0  4           0  0  0
   -6.4701    0.1306    0.0046 C   0  0  0  0  0  4           0  0  0
   -6.6331   -0.9442   -2.1461 C   0  0  0  0  0  4           0  0  0
   -0.1495    0.7849    2.3176 C   0  0  0  0  0  4           0  0  0
   -5.0885   -0.0899    0.0024 C   0  0  0  0  0  4           0  0  0
   -5.2528   -1.1612   -2.1475 C   0  0  0  0  0  4           0  0  0
   -1.9369    0.1120    3.7886 C   0  0  0  0  0  4           0  0  0
   -0.7816    0.8469    3.5605 C   0  0  0  0  0  4           0  0  0
   -2.9691   -0.9572   -1.0416 C   0  0  1  0  0  4           0  0  0
   -1.8701    2.5582   -0.5114 C   0  0  0  0  0  4           0  0  0
   -0.6492    0.0471   -1.2419 C   0  0  0  0  0  4           0  0  0
   -2.1566    0.3300   -1.2691 C   0  0  2  0  0  4           0  0  0
   -9.2323    0.5222   -0.0919 C   0  0  0  0  0  4           0  0  0
    1.4514   -0.0000    0.0000 C   0  0  0  0  0  4           0  0  0
    2.0519   -1.2178    0.7031 C   0  0  0  0  0  4           0  0  0
    2.2532   -3.6340    0.7902 C   0  0  0  0  0  4           0  0  0
    2.0502   -2.5125   -1.3201 C   0  0  0  0  0  4           0  0  0
   -2.3819    3.5444    0.4938 C   0  0  0  0  0  4           0  0  0
  1  8  1  0     0  0
  1 20  1  0     0  0
  2  9  1  0     0  0
  2 24  1  0     0  0
  3 21  2  0     0  0
  4 22  2  0     0  0
  5 21  1  0     0  0
  5 23  1  0     0  0
  6 10  1  0     0  0
  6 22  1  0     0  0
  6 25  1  0     0  0
  7 26  1  0     0  0
  7 27  1  0     0  0
  7 28  1  0     0  0
  8 10  2  0     0  0
  8 12  1  0     0  0
  9 13  2  0     0  0
  9 14  1  0     0  0
 10 15  1  0     0  0
 11 16  2  0     0  0
 11 17  1  0     0  0
 11 20  1  0     0  0
 12 18  2  0     0  0
 13 16  1  0     0  0
 14 17  2  0     0  0
 15 19  2  0     0  0
 18 19  1  0     0  0
 20 23  1  0     0  0
 21 29  1  0     0  0
 22 23  1  0     0  0
 25 26  1  0     0  0
M  END
> <standard_type>
pIC50

> <# Confs.>
25

> <canonical_smiles>
O=C1[C@@H]([C@@H](SC2=C(N1CCN(C)C)C=CC=C2)C3=CC=C(OC)C=C3)OC(C)=O

> <standard_relation>
=

> <Publication_ID>
nan

> <predicted_activity_value>
nan

> <actual_activity_value>
-1.2380461031287955

> <Compound>
Diltiazem

> <standard_units>
uM

> hash
1563956001557007101

$$$$
13
XXILIB    08252103503D 0   0.00000     0.00000

 29 31  0     1  0            999 V2000
   -2.2757    2.1741    0.4600 S   0  0  0  0  0  2           0  0  0
   -3.6390    4.5819   -5.4547 O   0  0  0  0  0  2           0  0  0
   -1.4901   -2.6759   -2.0913 O   0  0  0  0  0  2           0  0  0
   -0.0678    0.2402   -2.3123 O   0  0  0  0  0  2           0  0  0
   -2.5408   -0.6584   -2.4845 O   0  0  0  0  0  2           0  0  0
   -0.0000    0.0000    0.0000 N   0  0  1  0  0  3           0  0  0
    1.6601    2.3097    0.9380 N   0  0  2  0  0  3           0  0  0
   -1.7482    0.8662    1.5593 C   0  0  0  0  0  4           0  0  0
   -3.5637    3.7519   -4.3725 C   0  0  0  0  0  4           0  0  0
   -0.6720    0.0000    1.2708 C   0  0  0  0  0  4           0  0  0
   -3.1525    2.0910   -2.1254 C   0  0  0  0  0  4           0  0  0
   -2.3695    0.8162    2.8188 C   0  0  0  0  0  4           0  0  0
   -4.6406    3.0864   -3.7825 C   0  0  0  0  0  4           0  0  0
   -2.2827    3.5805   -3.8409 C   0  0  0  0  0  4           0  0  0
   -0.2460   -0.8902    2.2739 C   0  0  0  0  0  4           0  0  0
   -4.4331    2.2609   -2.6721 C   0  0  0  0  0  4           0  0  0
   -2.0780    2.7577   -2.7304 C   0  0  0  0  0  4           0  0  0
   -1.9421   -0.0869    3.7892 C   0  0  0  0  0  4           0  0  0
   -0.8783   -0.9370    3.5179 C   0  0  0  0  0  4           0  0  0
   -2.9641    1.1891   -0.9322 C   0  0  1  0  0  4           0  0  0
   -1.9093   -1.8091   -2.8468 C   0  0  0  0  0  4           0  0  0
   -0.6594    0.0873   -1.2394 C   0  0  0  0  0  4           0  0  0
   -2.1765   -0.1084   -1.2167 C   0  0  2  0  0  4           0  0  0
   -4.9452    4.7570   -5.9981 C   0  0  0  0  0  4           0  0  0
    1.4514    0.0000   -0.0000 C   0  0  0  0  0  4           0  0  0
    2.0519    0.9039    1.0772 C   0  0  0  0  0  4           0  0  0
    2.0845    2.8666   -0.3487 C   0  0  0  0  0  4           0  0  0
    2.2248    3.1002    2.0342 C   0  0  0  0  0  4           0  0  0
   -1.7861   -1.8675   -4.3390 C   0  0  0  0  0  4           0  0  0
  1  8  1  0     0  0
  1 20  1  0     0  0
  2  9  1  0     0  0
  2 24  1  0     0  0
  3 21  2  0     0  0
  4 22  2  0     0  0
  5 21  1  0     0  0
  5 23  1  0     0  0
  6 10  1  0     0  0
  6 22  1  0     0  0
  6 25  1  0     0  0
  7 26  1  0     0  0
  7 27  1  0     0  0
  7 28  1  0     0  0
  8 10  2  0     0  0
  8 12  1  0     0  0
  9 13  2  0     0  0
  9 14  1  0     0  0
 10 15  1  0     0  0
 11 16  2  0     0  0
 11 17  1  0     0  0
 11 20  1  0     0  0
 12 18  2  0     0  0
 13 16  1  0     0  0
 14 17  2  0     0  0
 15 19  2  0     0  0
 18 19  1  0     0  0
 20 23  1  0     0  0
 21 29  1  0     0  0
 22 23  1  0     0  0
 25 26  1  0     0  0
M  END
> <standard_type>
pIC50

> <# Confs.>
25

> <canonical_smiles>
O=C1[C@@H]([C@@H](SC2=C(N1CCN(C)C)C=CC=C2)C3=CC=C(OC)C=C3)OC(C)=O

> <standard_relation>
=

> <Publication_ID>
nan

> <predicted_activity_value>
nan

> <actual_activity_value>
-1.2380461031287955

> <Compound>
Diltiazem

> <standard_units>
uM

> hash
1563956001557007101

$$$$
13
XXILIB    08252103503D 0   0.00000     0.00000

 29 31  0     1  0            999 V2000
   -2.4661   -1.9905    0.3874 S   0  0  0  0  0  2           0  0  0
   -8.6020   -0.1384   -1.1865 O   0  0  0  0  0  2           0  0  0
   -0.7145    2.6974   -0.8896 O   0  0  0  0  0  2           0  0  0
   -0.0595   -0.0968   -2.3193 O   0  0  0  0  0  2           0  0  0
   -2.5402    1.3802   -0.3789 O   0  0  0  0  0  2           0  0  0
   -0.0000    0.0000    0.0000 N   0  0  1  0  0  3           0  0  0
    3.5180   -1.2209   -0.7049 N   0  0  2  0  0  3           0  0  0
   -1.8281   -0.7642    1.5198 C   0  0  0  0  0  4           0  0  0
   -7.2500   -0.2961   -1.0727 C   0  0  0  0  0  4           0  0  0
   -0.6693    0.0000    1.2700 C   0  0  0  0  0  4           0  0  0
   -4.4592   -0.7304   -1.0752 C   0  0  0  0  0  4           0  0  0
   -2.4501   -0.6985    2.7790 C   0  0  0  0  0  4           0  0  0
   -6.4701    0.1306    0.0046 C   0  0  0  0  0  4           0  0  0
   -6.6331   -0.9442   -2.1461 C   0  0  0  0  0  4           0  0  0
   -0.1495    0.7849    2.3176 C   0  0  0  0  0  4           0  0  0
   -5.0885   -0.0899    0.0024 C   0  0  0  0  0  4           0  0  0
   -5.2528   -1.1612   -2.1475 C   0  0  0  0  0  4           0  0  0
   -1.9369    0.1120    3.7886 C   0  0  0  0  0  4           0  0  0
   -0.7816    0.8469    3.5605 C   0  0  0  0  0  4           0  0  0
   -2.9691   -0.9572   -1.0416 C   0  0  1  0  0  4           0  0  0
   -1.8701    2.5582   -0.5114 C   0  0  0  0  0  4           0  0  0
   -0.6492    0.0471   -1.2419 C   0  0  0  0  0  4           0  0  0
   -2.1566    0.3300   -1.2691 C   0  0  2  0  0  4           0  0  0
   -9.2323    0.5222   -0.0919 C   0  0  0  0  0  4           0  0  0
    1.4514    0.0000   -0.0000 C   0  0  0  0  0  4           0  0  0
    2.0519   -1.2178   -0.7031 C   0  0  0  0  0  4           0  0  0
    4.0624   -0.0437   -1.3859 C   0  0  0  0  0  4           0  0  0
    4.0177   -2.4413   -1.3422 C   0  0  0  0  0  4           0  0  0
   -2.7630    3.6931   -0.1114 C   0  0  0  0  0  4           0  0  0
  1  8  1  0     0  0
  1 20  1  0     0  0
  2  9  1  0     0  0
  2 24  1  0     0  0
  3 21  2  0     0  0
  4 22  2  0     0  0
  5 21  1  0     0  0
  5 23  1  0     0  0
  6 10  1  0     0  0
  6 22  1  0     0  0
  6 25  1  0     0  0
  7 26  1  0     0  0
  7 27  1  0     0  0
  7 28  1  0     0  0
  8 10  2  0     0  0
  8 12  1  0     0  0
  9 13  2  0     0  0
  9 14  1  0     0  0
 10 15  1  0     0  0
 11 16  2  0     0  0
 11 17  1  0     0  0
 11 20  1  0     0  0
 12 18  2  0     0  0
 13 16  1  0     0  0
 14 17  2  0     0  0
 15 19  2  0     0  0
 18 19  1  0     0  0
 20 23  1  0     0  0
 21 29  1  0     0  0
 22 23  1  0     0  0
 25 26  1  0     0  0
M  END
> <standard_type>
pIC50

> <# Confs.>
25

> <canonical_smiles>
O=C1[C@@H]([C@@H](SC2=C(N1CCN(C)C)C=CC=C2)C3=CC=C(OC)C=C3)OC(C)=O

> <standard_relation>
=

> <Publication_ID>
nan

> <predicted_activity_value>
nan

> <actual_activity_value>
-1.2380461031287955

> <Compound>
Diltiazem

> <standard_units>
uM

> hash
1563956001557007101

$$$$
13
XXILIB    08252103503D 0   0.00000     0.00000

 29 31  0     1  0            999 V2000
   -2.5056    1.9377    0.3395 S   0  0  0  0  0  2           0  0  0
   -4.0589    3.9232   -5.6834 O   0  0  0  0  0  2           0  0  0
   -4.4769   -1.8934   -1.6132 O   0  0  0  0  0  2           0  0  0
   -0.0630    0.0669   -2.3232 O   0  0  0  0  0  2           0  0  0
   -2.5002   -1.0391   -2.4449 O   0  0  0  0  0  2           0  0  0
   -0.0000    0.0000    0.0000 N   0  0  1  0  0  3           0  0  0
    3.5180    1.2209    0.7049 N   0  0  2  0  0  3           0  0  0
   -1.8500    0.7483    1.5037 C   0  0  0  0  0  4           0  0  0
   -3.7364    3.2086   -4.5649 C   0  0  0  0  0  4           0  0  0
   -0.6760   -0.0000    1.2685 C   0  0  0  0  0  4           0  0  0
   -3.3157    1.6428   -2.2522 C   0  0  0  0  0  4           0  0  0
   -2.4721    0.6989    2.7629 C   0  0  0  0  0  4           0  0  0
   -2.4742    3.1579   -3.9691 C   0  0  0  0  0  4           0  0  0
   -4.7867    2.4808   -3.9992 C   0  0  0  0  0  4           0  0  0
   -0.1436   -0.7532    2.3320 C   0  0  0  0  0  4           0  0  0
   -2.2700    2.3848   -2.8210 C   0  0  0  0  0  4           0  0  0
   -4.5801    1.7074   -2.8541 C   0  0  0  0  0  4           0  0  0
   -1.9434   -0.0799    3.7893 C   0  0  0  0  0  4           0  0  0
   -0.7755   -0.7998    3.5758 C   0  0  0  0  0  4           0  0  0
   -3.0617    0.8255   -1.0111 C   0  0  1  0  0  4           0  0  0
   -3.7783   -1.4996   -2.5377 C   0  0  0  0  0  4           0  0  0
   -0.6520   -0.0548   -1.2449 C   0  0  0  0  0  4           0  0  0
   -2.1460   -0.3970   -1.2182 C   0  0  2  0  0  4           0  0  0
   -2.9883    4.6663   -6.2610 C   0  0  0  0  0  4           0  0  0
    1.4514   -0.0000   -0.0000 C   0  0  0  0  0  4           0  0  0
    2.0519    1.2178    0.7031 C   0  0  0  0  0  4           0  0  0
    4.0574    2.4004    1.3859 C   0  0  0  0  0  4           0  0  0
    4.0229    1.1636   -0.6688 C   0  0  0  0  0  4           0  0  0
   -4.2230   -1.4656   -3.9682 C   0  0  0  0  0  4           0  0  0
  1  8  1  0     0  0
  1 20  1  0     0  0
  2  9  1  0     0  0
  2 24  1  0     0  0
  3 21  2  0     0  0
  4 22  2  0     0  0
  5 21  1  0     0  0
  5 23  1  0     0  0
  6 10  1  0     0  0
  6 22  1  0     0  0
  6 25  1  0     0  0
  7 26  1  0     0  0
  7 27  1  0     0  0
  7 28  1  0     0  0
  8 10  2  0     0  0
  8 12  1  0     0  0
  9 13  2  0     0  0
  9 14  1  0     0  0
 10 15  1  0     0  0
 11 16  2  0     0  0
 11 17  1  0     0  0
 11 20  1  0     0  0
 12 18  2  0     0  0
 13 16  1  0     0  0
 14 17  2  0     0  0
 15 19  2  0     0  0
 18 19  1  0     0  0
 20 23  1  0     0  0
 21 29  1  0     0  0
 22 23  1  0     0  0
 25 26  1  0     0  0
M  END
> <standard_type>
pIC50

> <# Confs.>
25

> <canonical_smiles>
O=C1[C@@H]([C@@H](SC2=C(N1CCN(C)C)C=CC=C2)C3=CC=C(OC)C=C3)OC(C)=O

> <standard_relation>
=

> <Publication_ID>
nan

> <predicted_activity_value>
nan

> <actual_activity_value>
-1.2380461031287955

> <Compound>
Diltiazem

> <standard_units>
uM

> hash
1563956001557007101

$$$$
13
XXILIB    08252103503D 0   0.00000     0.00000

 29 31  0     1  0            999 V2000
   -2.4661   -1.9905    0.3874 S   0  0  0  0  0  2           0  0  0
   -8.5995   -0.1245   -1.2031 O   0  0  0  0  0  2           0  0  0
   -0.9783    2.7997   -1.3140 O   0  0  0  0  0  2           0  0  0
   -0.0595   -0.0968   -2.3193 O   0  0  0  0  0  2           0  0  0
   -2.5402    1.3802   -0.3789 O   0  0  0  0  0  2           0  0  0
   -0.0000    0.0000    0.0000 N   0  0  1  0  0  3           0  0  0
    3.5180   -1.4097    0.0000 N   0  0  2  0  0  3           0  0  0
   -1.8281   -0.7642    1.5198 C   0  0  0  0  0  4           0  0  0
   -7.2550   -0.3297   -1.0767 C   0  0  0  0  0  4           0  0  0
   -0.6693    0.0000    1.2700 C   0  0  0  0  0  4           0  0  0
   -4.4592   -0.7304   -1.0752 C   0  0  0  0  0  4           0  0  0
   -2.4501   -0.6985    2.7790 C   0  0  0  0  0  4           0  0  0
   -6.5687   -0.4986    0.1279 C   0  0  0  0  0  4           0  0  0
   -6.5423   -0.3674   -2.2781 C   0  0  0  0  0  4           0  0  0
   -0.1495    0.7849    2.3176 C   0  0  0  0  0  4           0  0  0
   -5.1843   -0.7013    0.1252 C   0  0  0  0  0  4           0  0  0
   -5.1595   -0.5675   -2.2786 C   0  0  0  0  0  4           0  0  0
   -1.9369    0.1120    3.7886 C   0  0  0  0  0  4           0  0  0
   -0.7816    0.8469    3.5605 C   0  0  0  0  0  4           0  0  0
   -2.9691   -0.9572   -1.0416 C   0  0  1  0  0  4           0  0  0
   -1.8701    2.5582   -0.5114 C   0  0  0  0  0  4           0  0  0
   -0.6492    0.0471   -1.2419 C   0  0  0  0  0  4           0  0  0
   -2.1566    0.3300   -1.2691 C   0  0  2  0  0  4           0  0  0
   -9.3275   -0.0862    0.0218 C   0  0  0  0  0  4           0  0  0
    1.4514    0.0000    0.0000 C   0  0  0  0  0  4           0  0  0
    2.0519   -1.4061    0.0000 C   0  0  0  0  0  4           0  0  0
    4.0574   -2.7717    0.0000 C   0  0  0  0  0  4           0  0  0
    4.0229   -0.6733    1.1611 C   0  0  0  0  0  4           0  0  0
   -2.3819    3.5444    0.4938 C   0  0  0  0  0  4           0  0  0
  1  8  1  0     0  0
  1 20  1  0     0  0
  2  9  1  0     0  0
  2 24  1  0     0  0
  3 21  2  0     0  0
  4 22  2  0     0  0
  5 21  1  0     0  0
  5 23  1  0     0  0
  6 10  1  0     0  0
  6 22  1  0     0  0
  6 25  1  0     0  0
  7 26  1  0     0  0
  7 27  1  0     0  0
  7 28  1  0     0  0
  8 10  2  0     0  0
  8 12  1  0     0  0
  9 13  2  0     0  0
  9 14  1  0     0  0
 10 15  1  0     0  0
 11 16  2  0     0  0
 11 17  1  0     0  0
 11 20  1  0     0  0
 12 18  2  0     0  0
 13 16  1  0     0  0
 14 17  2  0     0  0
 15 19  2  0     0  0
 18 19  1  0     0  0
 20 23  1  0     0  0
 21 29  1  0     0  0
 22 23  1  0     0  0
 25 26  1  0     0  0
M  END
> <standard_type>
pIC50

> <# Confs.>
25

> <canonical_smiles>
O=C1[C@@H]([C@@H](SC2=C(N1CCN(C)C)C=CC=C2)C3=CC=C(OC)C=C3)OC(C)=O

> <standard_relation>
=

> <Publication_ID>
nan

> <predicted_activity_value>
nan

> <actual_activity_value>
-1.2380461031287955

> <Compound>
Diltiazem

> <standard_units>
uM

> hash
1563956001557007101

$$$$
46
XXILIB    08252103503D 0   0.00000     0.00000

 24 27  0     1  0            999 V2000
    1.9697    4.1797   -2.4201 O   0  0  0  0  0  2           0  0  0
   -0.4851   -0.0000    1.3470 O   0  0  0  0  0  2           0  0  0
    4.3090   -0.1594    0.0895 N   0  0  0  0  0  3           0  0  0
   -2.1467   -1.0352   -0.8526 N   0  0  2  0  0  3           0  0  0
    2.6171    3.1396   -1.8151 C   0  0  0  0  0  4           0  0  0
    3.7145    0.8844   -0.5112 C   0  0  0  0  0  4           0  0  0
    3.5289   -1.1104    0.6383 C   0  0  0  0  0  4           0  0  0
    2.3091    1.0231   -0.5907 C   0  0  0  0  0  4           0  0  0
    1.5126   -0.0000    0.0000 C   0  0  0  0  0  4           0  0  0
    1.7885    2.1653   -1.2490 C   0  0  0  0  0  4           0  0  0
    3.9936    2.9841   -1.7234 C   0  0  0  0  0  4           0  0  0
    4.5226    1.8653   -1.0763 C   0  0  0  0  0  4           0  0  0
    2.1507   -1.0785    0.6219 C   0  0  0  0  0  4           0  0  0
    0.0000    0.0000    0.0000 C   0  0  1  0  0  4           0  0  0
    2.8153    5.1717   -2.9964 C   0  0  0  0  0  4           0  0  0
   -0.6636   -1.1425   -0.7900 C   0  0  2  0  0  4           0  0  0
   -2.6690   -2.3036   -1.4171 C   0  0  0  0  0  4           0  0  0
   -2.5612    0.0771   -1.7343 C   0  0  0  0  0  4           0  0  0
   -1.6967   -3.9383   -3.0642 C   0  0  0  0  0  4           0  0  0
   -2.1766   -4.8476   -3.9211 C   0  0  0  0  0  4           0  0  0
   -2.1848   -2.5328   -2.8723 C   0  0  2  0  0  4           0  0  0
   -1.2029   -1.3912   -3.2472 C   0  0  2  0  0  4           0  0  0
   -0.0662   -1.2848   -2.2122 C   0  0  0  0  0  4           0  0  0
   -1.9921   -0.0716   -3.1527 C   0  0  0  0  0  4           0  0  0
  1  5  1  0     0  0
  1 15  1  0     0  0
  2 14  1  0     0  0
  3  6  1  0     0  0
  3  7  2  0     0  0
  4 16  1  0     0  0
  4 17  1  0     0  0
  4 18  1  0     0  0
  5 10  1  0     0  0
  5 11  2  0     0  0
  6  8  1  0     0  0
  6 12  2  0     0  0
  7 13  1  0     0  0
  8  9  1  0     0  0
  8 10  2  0     0  0
  9 13  2  0     0  0
  9 14  1  0     0  0
 11 12  1  0     0  0
 14 16  1  0     0  0
 16 23  1  0     0  0
 17 21  1  0     0  0
 18 24  1  0     0  0
 19 20  2  0     0  0
 19 21  1  0     0  0
 21 22  1  0     0  0
 22 23  1  0     0  0
 22 24  1  0     0  0
M  END
> <standard_type>
pIC50

> <# Confs.>
11

> <canonical_smiles>
O[C@H]([C@@H]1C[C@H]2[C@H](C[N@@]1CC2)C=C)C3=CC=NC4=CC=C(OC)C=C34

> <standard_relation>
=

> <Publication_ID>
nan

> <predicted_activity_value>
nan

> <actual_activity_value>
0.3979400086720376

> <Compound>
Quinidine

> <standard_units>
uM

> hash
7633839035481241312

$$$$
46
XXILIB    08252103503D 0   0.00000     0.00000

 24 27  0     1  0            999 V2000
    1.9697    4.8298   -0.0060 O   0  0  0  0  0  2           0  0  0
   -0.4851   -0.0000    1.3470 O   0  0  0  0  0  2           0  0  0
    4.3090   -0.1828   -0.0021 N   0  0  0  0  0  3           0  0  0
   -2.1467   -1.0352   -0.8526 N   0  0  2  0  0  3           0  0  0
    2.6171    3.6265   -0.0021 C   0  0  0  0  0  4           0  0  0
    3.7145    1.0215   -0.0005 C   0  0  0  0  0  4           0  0  0
    3.5289   -1.2808   -0.0025 C   0  0  0  0  0  4           0  0  0
    2.3091    1.1814    0.0000 C   0  0  0  0  0  4           0  0  0
    1.5126   -0.0000    0.0000 C   0  0  0  0  0  4           0  0  0
    1.7885    2.4997    0.0010 C   0  0  0  0  0  4           0  0  0
    3.9936    3.4460   -0.0005 C   0  0  0  0  0  4           0  0  0
    4.5226    2.1536    0.0006 C   0  0  0  0  0  4           0  0  0
    2.1507   -1.2450   -0.0006 C   0  0  0  0  0  4           0  0  0
    0.0000    0.0000    0.0000 C   0  0  1  0  0  4           0  0  0
    2.8153    5.9771   -0.0091 C   0  0  0  0  0  4           0  0  0
   -0.6636   -1.1425   -0.7900 C   0  0  2  0  0  4           0  0  0
   -2.6690   -2.3036   -1.4171 C   0  0  0  0  0  4           0  0  0
   -2.5612    0.0771   -1.7343 C   0  0  0  0  0  4           0  0  0
   -1.6967   -3.9383   -3.0642 C   0  0  0  0  0  4           0  0  0
   -2.1766   -4.8476   -3.9211 C   0  0  0  0  0  4           0  0  0
   -2.1848   -2.5328   -2.8723 C   0  0  2  0  0  4           0  0  0
   -1.2029   -1.3912   -3.2472 C   0  0  2  0  0  4           0  0  0
   -0.0662   -1.2848   -2.2122 C   0  0  0  0  0  4           0  0  0
   -1.9921   -0.0716   -3.1527 C   0  0  0  0  0  4           0  0  0
  1  5  1  0     0  0
  1 15  1  0     0  0
  2 14  1  0     0  0
  3  6  1  0     0  0
  3  7  2  0     0  0
  4 16  1  0     0  0
  4 17  1  0     0  0
  4 18  1  0     0  0
  5 10  1  0     0  0
  5 11  2  0     0  0
  6  8  1  0     0  0
  6 12  2  0     0  0
  7 13  1  0     0  0
  8  9  1  0     0  0
  8 10  2  0     0  0
  9 13  2  0     0  0
  9 14  1  0     0  0
 11 12  1  0     0  0
 14 16  1  0     0  0
 16 23  1  0     0  0
 17 21  1  0     0  0
 18 24  1  0     0  0
 19 20  2  0     0  0
 19 21  1  0     0  0
 21 22  1  0     0  0
 22 23  1  0     0  0
 22 24  1  0     0  0
M  END
> <standard_type>
pIC50

> <# Confs.>
11

> <canonical_smiles>
O[C@H]([C@@H]1C[C@H]2[C@H](C[N@@]1CC2)C=C)C3=CC=NC4=CC=C(OC)C=C34

> <standard_relation>
=

> <Publication_ID>
nan

> <predicted_activity_value>
nan

> <actual_activity_value>
0.3979400086720376

> <Compound>
Quinidine

> <standard_units>
uM

> hash
7633839035481241312

$$$$
46
XXILIB    08252103503D 0   0.00000     0.00000

 24 27  0     1  0            999 V2000
    1.9697   -4.1797    2.4201 O   0  0  0  0  0  2           0  0  0
   -0.4851   -0.0000    1.3470 O   0  0  0  0  0  2           0  0  0
    4.3090    0.1594   -0.0895 N   0  0  0  0  0  3           0  0  0
   -2.1467   -1.0352   -0.8526 N   0  0  2  0  0  3           0  0  0
    2.6171   -3.1396    1.8151 C   0  0  0  0  0  4           0  0  0
    3.7145   -0.8844    0.5112 C   0  0  0  0  0  4           0  0  0
    3.5289    1.1104   -0.6383 C   0  0  0  0  0  4           0  0  0
    2.3091   -1.0231    0.5907 C   0  0  0  0  0  4           0  0  0
    1.5126    0.0000   -0.0000 C   0  0  0  0  0  4           0  0  0
    1.7885   -2.1653    1.2490 C   0  0  0  0  0  4           0  0  0
    3.9936   -2.9841    1.7234 C   0  0  0  0  0  4           0  0  0
    4.5226   -1.8653    1.0763 C   0  0  0  0  0  4           0  0  0
    2.1507    1.0785   -0.6219 C   0  0  0  0  0  4           0  0  0
    0.0000    0.0000    0.0000 C   0  0  1  0  0  4           0  0  0
    2.8153   -5.1717    2.9964 C   0  0  0  0  0  4           0  0  0
   -0.6636   -1.1425   -0.7900 C   0  0  2  0  0  4           0  0  0
   -2.6690   -2.3036   -1.4171 C   0  0  0  0  0  4           0  0  0
   -2.5612    0.0771   -1.7343 C   0  0  0  0  0  4           0  0  0
   -1.6967   -3.9383   -3.0642 C   0  0  0  0  0  4           0  0  0
   -2.1766   -4.8476   -3.9211 C   0  0  0  0  0  4           0  0  0
   -2.1848   -2.5328   -2.8723 C   0  0  2  0  0  4           0  0  0
   -1.2029   -1.3912   -3.2472 C   0  0  2  0  0  4           0  0  0
   -0.0662   -1.2848   -2.2122 C   0  0  0  0  0  4           0  0  0
   -1.9921   -0.0716   -3.1527 C   0  0  0  0  0  4           0  0  0
  1  5  1  0     0  0
  1 15  1  0     0  0
  2 14  1  0     0  0
  3  6  1  0     0  0
  3  7  2  0     0  0
  4 16  1  0     0  0
  4 17  1  0     0  0
  4 18  1  0     0  0
  5 10  1  0     0  0
  5 11  2  0     0  0
  6  8  1  0     0  0
  6 12  2  0     0  0
  7 13  1  0     0  0
  8  9  1  0     0  0
  8 10  2  0     0  0
  9 13  2  0     0  0
  9 14  1  0     0  0
 11 12  1  0     0  0
 14 16  1  0     0  0
 16 23  1  0     0  0
 17 21  1  0     0  0
 18 24  1  0     0  0
 19 20  2  0     0  0
 19 21  1  0     0  0
 21 22  1  0     0  0
 22 23  1  0     0  0
 22 24  1  0     0  0
M  END
> <standard_type>
pIC50

> <# Confs.>
11

> <canonical_smiles>
O[C@H]([C@@H]1C[C@H]2[C@H](C[N@@]1CC2)C=C)C3=CC=NC4=CC=C(OC)C=C34

> <standard_relation>
=

> <Publication_ID>
nan

> <predicted_activity_value>
nan

> <actual_activity_value>
0.3979400086720376

> <Compound>
Quinidine

> <standard_units>
uM

> hash
7633839035481241312

$$$$
46
XXILIB    08252103503D 0   0.00000     0.00000

 24 27  0     1  0            999 V2000
    1.9697    4.1797   -2.4201 O   0  0  0  0  0  2           0  0  0
   -0.4851   -0.0000    1.3470 O   0  0  0  0  0  2           0  0  0
    4.3090   -0.1594    0.0895 N   0  0  0  0  0  3           0  0  0
   -2.1467   -1.0352   -0.8526 N   0  0  2  0  0  3           0  0  0
    2.6171    3.1396   -1.8151 C   0  0  0  0  0  4           0  0  0
    3.7145    0.8844   -0.5112 C   0  0  0  0  0  4           0  0  0
    3.5289   -1.1104    0.6383 C   0  0  0  0  0  4           0  0  0
    2.3091    1.0231   -0.5907 C   0  0  0  0  0  4           0  0  0
    1.5126   -0.0000    0.0000 C   0  0  0  0  0  4           0  0  0
    1.7885    2.1653   -1.2490 C   0  0  0  0  0  4           0  0  0
    3.9936    2.9841   -1.7234 C   0  0  0  0  0  4           0  0  0
    4.5226    1.8653   -1.0763 C   0  0  0  0  0  4           0  0  0
    2.1507   -1.0785    0.6219 C   0  0  0  0  0  4           0  0  0
    0.0000    0.0000    0.0000 C   0  0  1  0  0  4           0  0  0
    1.6814    3.9963   -3.8038 C   0  0  0  0  0  4           0  0  0
   -0.6636   -1.1425   -0.7900 C   0  0  2  0  0  4           0  0  0
   -2.6690   -2.3036   -1.4171 C   0  0  0  0  0  4           0  0  0
   -2.5612    0.0771   -1.7343 C   0  0  0  0  0  4           0  0  0
   -1.6967   -3.9383   -3.0642 C   0  0  0  0  0  4           0  0  0
   -0.4692   -4.3208   -3.4360 C   0  0  0  0  0  4           0  0  0
   -2.1848   -2.5328   -2.8723 C   0  0  2  0  0  4           0  0  0
   -1.2029   -1.3912   -3.2472 C   0  0  2  0  0  4           0  0  0
   -0.0662   -1.2848   -2.2122 C   0  0  0  0  0  4           0  0  0
   -1.9921   -0.0716   -3.1527 C   0  0  0  0  0  4           0  0  0
  1  5  1  0     0  0
  1 15  1  0     0  0
  2 14  1  0     0  0
  3  6  1  0     0  0
  3  7  2  0     0  0
  4 16  1  0     0  0
  4 17  1  0     0  0
  4 18  1  0     0  0
  5 10  1  0     0  0
  5 11  2  0     0  0
  6  8  1  0     0  0
  6 12  2  0     0  0
  7 13  1  0     0  0
  8  9  1  0     0  0
  8 10  2  0     0  0
  9 13  2  0     0  0
  9 14  1  0     0  0
 11 12  1  0     0  0
 14 16  1  0     0  0
 16 23  1  0     0  0
 17 21  1  0     0  0
 18 24  1  0     0  0
 19 20  2  0     0  0
 19 21  1  0     0  0
 21 22  1  0     0  0
 22 23  1  0     0  0
 22 24  1  0     0  0
M  END
> <standard_type>
pIC50

> <# Confs.>
11

> <canonical_smiles>
O[C@H]([C@@H]1C[C@H]2[C@H](C[N@@]1CC2)C=C)C3=CC=NC4=CC=C(OC)C=C34

> <standard_relation>
=

> <Publication_ID>
nan

> <predicted_activity_value>
nan

> <actual_activity_value>
0.3979400086720376

> <Compound>
Quinidine

> <standard_units>
uM

> hash
7633839035481241312

$$$$
46
XXILIB    08252103503D 0   0.00000     0.00000

 24 27  0     1  0            999 V2000
    1.9697    4.1797   -2.4201 O   0  0  0  0  0  2           0  0  0
   -0.4851   -0.0000    1.3470 O   0  0  0  0  0  2           0  0  0
    4.3090   -0.1594    0.0895 N   0  0  0  0  0  3           0  0  0
   -2.1496   -1.0595   -0.8684 N   0  0  2  0  0  3           0  0  0
    2.6171    3.1396   -1.8151 C   0  0  0  0  0  4           0  0  0
    3.7145    0.8844   -0.5112 C   0  0  0  0  0  4           0  0  0
    3.5289   -1.1104    0.6383 C   0  0  0  0  0  4           0  0  0
    2.3091    1.0231   -0.5907 C   0  0  0  0  0  4           0  0  0
    1.5126   -0.0000    0.0000 C   0  0  0  0  0  4           0  0  0
    1.7885    2.1653   -1.2490 C   0  0  0  0  0  4           0  0  0
    3.9936    2.9841   -1.7234 C   0  0  0  0  0  4           0  0  0
    4.5226    1.8653   -1.0763 C   0  0  0  0  0  4           0  0  0
    2.1507   -1.0785    0.6219 C   0  0  0  0  0  4           0  0  0
    0.0000    0.0000    0.0000 C   0  0  1  0  0  4           0  0  0
    1.6803    5.2913   -1.5763 C   0  0  0  0  0  4           0  0  0
   -0.6636   -1.1425   -0.7900 C   0  0  2  0  0  4           0  0  0
   -2.6469   -2.3924   -1.3048 C   0  0  0  0  0  4           0  0  0
   -2.5925   -0.0685   -1.8715 C   0  0  0  0  0  4           0  0  0
   -1.4488   -4.1175   -2.8367 C   0  0  0  0  0  4           0  0  0
   -0.7800   -4.7783   -1.8841 C   0  0  0  0  0  4           0  0  0
   -2.1068   -2.7751   -2.7119 C   0  0  2  0  0  4           0  0  0
   -1.1677   -1.6427   -3.2051 C   0  0  2  0  0  4           0  0  0
   -0.0402   -1.4084   -2.1821 C   0  0  0  0  0  4           0  0  0
   -1.9918   -0.3444   -3.2563 C   0  0  0  0  0  4           0  0  0
  1  5  1  0     0  0
  1 15  1  0     0  0
  2 14  1  0     0  0
  3  6  1  0     0  0
  3  7  2  0     0  0
  4 16  1  0     0  0
  4 17  1  0     0  0
  4 18  1  0     0  0
  5 10  1  0     0  0
  5 11  2  0     0  0
  6  8  1  0     0  0
  6 12  2  0     0  0
  7 13  1  0     0  0
  8  9  1  0     0  0
  8 10  2  0     0  0
  9 13  2  0     0  0
  9 14  1  0     0  0
 11 12  1  0     0  0
 14 16  1  0     0  0
 16 23  1  0     0  0
 17 21  1  0     0  0
 18 24  1  0     0  0
 19 20  2  0     0  0
 19 21  1  0     0  0
 21 22  1  0     0  0
 22 23  1  0     0  0
 22 24  1  0     0  0
M  END
> <standard_type>
pIC50

> <# Confs.>
11

> <canonical_smiles>
O[C@H]([C@@H]1C[C@H]2[C@H](C[N@@]1CC2)C=C)C3=CC=NC4=CC=C(OC)C=C34

> <standard_relation>
=

> <Publication_ID>
nan

> <predicted_activity_value>
nan

> <actual_activity_value>
0.3979400086720376

> <Compound>
Quinidine

> <standard_units>
uM

> hash
7633839035481241312

$$$$
46
XXILIB    08252103503D 0   0.00000     0.00000

 24 27  0     1  0            999 V2000
    1.9697    2.4097   -4.1857 O   0  0  0  0  0  2           0  0  0
   -0.4851   -0.0000    1.3470 O   0  0  0  0  0  2           0  0  0
    4.3090   -0.0933    0.1572 N   0  0  0  0  0  3           0  0  0
   -2.1496   -1.0595   -0.8684 N   0  0  2  0  0  3           0  0  0
    2.6171    1.8115   -3.1417 C   0  0  0  0  0  4           0  0  0
    3.7145    0.5103   -0.8849 C   0  0  0  0  0  4           0  0  0
    3.5289   -0.6425    1.1080 C   0  0  0  0  0  4           0  0  0
    2.3091    0.5907   -1.0231 C   0  0  0  0  0  4           0  0  0
    1.5126   -0.0000    0.0000 C   0  0  0  0  0  4           0  0  0
    1.7885    1.2507   -2.1643 C   0  0  0  0  0  4           0  0  0
    3.9936    1.7226   -2.9846 C   0  0  0  0  0  4           0  0  0
    4.5226    1.0773   -1.8647 C   0  0  0  0  0  4           0  0  0
    2.1507   -0.6230    1.0778 C   0  0  0  0  0  4           0  0  0
    0.0000    0.0000    0.0000 C   0  0  1  0  0  4           0  0  0
    2.8153    2.9806   -5.1809 C   0  0  0  0  0  4           0  0  0
   -0.6636   -1.1425   -0.7900 C   0  0  2  0  0  4           0  0  0
   -2.6469   -2.3924   -1.3048 C   0  0  0  0  0  4           0  0  0
   -2.5925   -0.0685   -1.8715 C   0  0  0  0  0  4           0  0  0
   -1.4488   -4.1175   -2.8367 C   0  0  0  0  0  4           0  0  0
   -1.8225   -5.1268   -3.6323 C   0  0  0  0  0  4           0  0  0
   -2.1068   -2.7751   -2.7119 C   0  0  2  0  0  4           0  0  0
   -1.1677   -1.6427   -3.2051 C   0  0  2  0  0  4           0  0  0
   -0.0402   -1.4084   -2.1821 C   0  0  0  0  0  4           0  0  0
   -1.9918   -0.3444   -3.2563 C   0  0  0  0  0  4           0  0  0
  1  5  1  0     0  0
  1 15  1  0     0  0
  2 14  1  0     0  0
  3  6  1  0     0  0
  3  7  2  0     0  0
  4 16  1  0     0  0
  4 17  1  0     0  0
  4 18  1  0     0  0
  5 10  1  0     0  0
  5 11  2  0     0  0
  6  8  1  0     0  0
  6 12  2  0     0  0
  7 13  1  0     0  0
  8  9  1  0     0  0
  8 10  2  0     0  0
  9 13  2  0     0  0
  9 14  1  0     0  0
 11 12  1  0     0  0
 14 16  1  0     0  0
 16 23  1  0     0  0
 17 21  1  0     0  0
 18 24  1  0     0  0
 19 20  2  0     0  0
 19 21  1  0     0  0
 21 22  1  0     0  0
 22 23  1  0     0  0
 22 24  1  0     0  0
M  END
> <standard_type>
pIC50

> <# Confs.>
11

> <canonical_smiles>
O[C@H]([C@@H]1C[C@H]2[C@H](C[N@@]1CC2)C=C)C3=CC=NC4=CC=C(OC)C=C34

> <standard_relation>
=

> <Publication_ID>
nan

> <predicted_activity_value>
nan

> <actual_activity_value>
0.3979400086720376

> <Compound>
Quinidine

> <standard_units>
uM

> hash
7633839035481241312

$$$$
46
XXILIB    08252103503D 0   0.00000     0.00000

 24 27  0     1  0            999 V2000
    1.9697    4.8298   -0.0060 O   0  0  0  0  0  2           0  0  0
   -0.4851   -0.0000    1.3470 O   0  0  0  0  0  2           0  0  0
    4.3090   -0.1828   -0.0021 N   0  0  0  0  0  3           0  0  0
   -2.1496   -1.0595   -0.8684 N   0  0  2  0  0  3           0  0  0
    2.6171    3.6265   -0.0021 C   0  0  0  0  0  4           0  0  0
    3.7145    1.0215   -0.0005 C   0  0  0  0  0  4           0  0  0
    3.5289   -1.2808   -0.0025 C   0  0  0  0  0  4           0  0  0
    2.3091    1.1814    0.0000 C   0  0  0  0  0  4           0  0  0
    1.5126   -0.0000    0.0000 C   0  0  0  0  0  4           0  0  0
    1.7885    2.4997    0.0010 C   0  0  0  0  0  4           0  0  0
    3.9936    3.4460   -0.0005 C   0  0  0  0  0  4           0  0  0
    4.5226    2.1536    0.0006 C   0  0  0  0  0  4           0  0  0
    2.1507   -1.2450   -0.0006 C   0  0  0  0  0  4           0  0  0
    0.0000    0.0000    0.0000 C   0  0  1  0  0  4           0  0  0
    1.6803    5.3706    1.2805 C   0  0  0  0  0  4           0  0  0
   -0.6636   -1.1425   -0.7900 C   0  0  2  0  0  4           0  0  0
   -2.6469   -2.3924   -1.3048 C   0  0  0  0  0  4           0  0  0
   -2.5925   -0.0685   -1.8715 C   0  0  0  0  0  4           0  0  0
   -1.4488   -4.1175   -2.8367 C   0  0  0  0  0  4           0  0  0
   -0.7800   -4.7783   -1.8841 C   0  0  0  0  0  4           0  0  0
   -2.1068   -2.7751   -2.7119 C   0  0  2  0  0  4           0  0  0
   -1.1677   -1.6427   -3.2051 C   0  0  2  0  0  4           0  0  0
   -0.0402   -1.4084   -2.1821 C   0  0  0  0  0  4           0  0  0
   -1.9918   -0.3444   -3.2563 C   0  0  0  0  0  4           0  0  0
  1  5  1  0     0  0
  1 15  1  0     0  0
  2 14  1  0     0  0
  3  6  1  0     0  0
  3  7  2  0     0  0
  4 16  1  0     0  0
  4 17  1  0     0  0
  4 18  1  0     0  0
  5 10  1  0     0  0
  5 11  2  0     0  0
  6  8  1  0     0  0
  6 12  2  0     0  0
  7 13  1  0     0  0
  8  9  1  0     0  0
  8 10  2  0     0  0
  9 13  2  0     0  0
  9 14  1  0     0  0
 11 12  1  0     0  0
 14 16  1  0     0  0
 16 23  1  0     0  0
 17 21  1  0     0  0
 18 24  1  0     0  0
 19 20  2  0     0  0
 19 21  1  0     0  0
 21 22  1  0     0  0
 22 23  1  0     0  0
 22 24  1  0     0  0
M  END
> <standard_type>
pIC50

> <# Confs.>
11

> <canonical_smiles>
O[C@H]([C@@H]1C[C@H]2[C@H](C[N@@]1CC2)C=C)C3=CC=NC4=CC=C(OC)C=C34

> <standard_relation>
=

> <Publication_ID>
nan

> <predicted_activity_value>
nan

> <actual_activity_value>
0.3979400086720376

> <Compound>
Quinidine

> <standard_units>
uM

> hash
7633839035481241312

$$$$
46
XXILIB    08252103503D 0   0.00000     0.00000

 24 27  0     1  0            999 V2000
    1.9697   -4.1797    2.4201 O   0  0  0  0  0  2           0  0  0
   -0.4851   -0.0000    1.3470 O   0  0  0  0  0  2           0  0  0
    4.3090    0.1594   -0.0895 N   0  0  0  0  0  3           0  0  0
   -2.1467   -1.0352   -0.8526 N   0  0  2  0  0  3           0  0  0
    2.6171   -3.1396    1.8151 C   0  0  0  0  0  4           0  0  0
    3.7145   -0.8844    0.5112 C   0  0  0  0  0  4           0  0  0
    3.5289    1.1104   -0.6383 C   0  0  0  0  0  4           0  0  0
    2.3091   -1.0231    0.5907 C   0  0  0  0  0  4           0  0  0
    1.5126    0.0000   -0.0000 C   0  0  0  0  0  4           0  0  0
    1.7885   -2.1653    1.2490 C   0  0  0  0  0  4           0  0  0
    3.9936   -2.9841    1.7234 C   0  0  0  0  0  4           0  0  0
    4.5226   -1.8653    1.0763 C   0  0  0  0  0  4           0  0  0
    2.1507    1.0785   -0.6219 C   0  0  0  0  0  4           0  0  0
    0.0000    0.0000    0.0000 C   0  0  1  0  0  4           0  0  0
    1.6803   -5.2913    1.5763 C   0  0  0  0  0  4           0  0  0
   -0.6636   -1.1425   -0.7900 C   0  0  2  0  0  4           0  0  0
   -2.6690   -2.3036   -1.4171 C   0  0  0  0  0  4           0  0  0
   -2.5612    0.0771   -1.7343 C   0  0  0  0  0  4           0  0  0
   -1.6967   -3.9383   -3.0642 C   0  0  0  0  0  4           0  0  0
   -0.4692   -4.3208   -3.4360 C   0  0  0  0  0  4           0  0  0
   -2.1848   -2.5328   -2.8723 C   0  0  2  0  0  4           0  0  0
   -1.2029   -1.3912   -3.2472 C   0  0  2  0  0  4           0  0  0
   -0.0662   -1.2848   -2.2122 C   0  0  0  0  0  4           0  0  0
   -1.9921   -0.0716   -3.1527 C   0  0  0  0  0  4           0  0  0
  1  5  1  0     0  0
  1 15  1  0     0  0
  2 14  1  0     0  0
  3  6  1  0     0  0
  3  7  2  0     0  0
  4 16  1  0     0  0
  4 17  1  0     0  0
  4 18  1  0     0  0
  5 10  1  0     0  0
  5 11  2  0     0  0
  6  8  1  0     0  0
  6 12  2  0     0  0
  7 13  1  0     0  0
  8  9  1  0     0  0
  8 10  2  0     0  0
  9 13  2  0     0  0
  9 14  1  0     0  0
 11 12  1  0     0  0
 14 16  1  0     0  0
 16 23  1  0     0  0
 17 21  1  0     0  0
 18 24  1  0     0  0
 19 20  2  0     0  0
 19 21  1  0     0  0
 21 22  1  0     0  0
 22 23  1  0     0  0
 22 24  1  0     0  0
M  END
> <standard_type>
pIC50

> <# Confs.>
11

> <canonical_smiles>
O[C@H]([C@@H]1C[C@H]2[C@H](C[N@@]1CC2)C=C)C3=CC=NC4=CC=C(OC)C=C34

> <standard_relation>
=

> <Publication_ID>
nan

> <predicted_activity_value>
nan

> <actual_activity_value>
0.3979400086720376

> <Compound>
Quinidine

> <standard_units>
uM

> hash
7633839035481241312

$$$$
46
XXILIB    08252103503D 0   0.00000     0.00000

 24 27  0     1  0            999 V2000
    1.9697   -4.1797    2.4201 O   0  0  0  0  0  2           0  0  0
   -0.4851   -0.0000    1.3470 O   0  0  0  0  0  2           0  0  0
    4.3090    0.1594   -0.0895 N   0  0  0  0  0  3           0  0  0
   -2.1496   -1.0595   -0.8684 N   0  0  2  0  0  3           0  0  0
    2.6171   -3.1396    1.8151 C   0  0  0  0  0  4           0  0  0
    3.7145   -0.8844    0.5112 C   0  0  0  0  0  4           0  0  0
    3.5289    1.1104   -0.6383 C   0  0  0  0  0  4           0  0  0
    2.3091   -1.0231    0.5907 C   0  0  0  0  0  4           0  0  0
    1.5126    0.0000   -0.0000 C   0  0  0  0  0  4           0  0  0
    1.7885   -2.1653    1.2490 C   0  0  0  0  0  4           0  0  0
    3.9936   -2.9841    1.7234 C   0  0  0  0  0  4           0  0  0
    4.5226   -1.8653    1.0763 C   0  0  0  0  0  4           0  0  0
    2.1507    1.0785   -0.6219 C   0  0  0  0  0  4           0  0  0
    0.0000    0.0000    0.0000 C   0  0  1  0  0  4           0  0  0
    1.6814   -3.9963    3.8038 C   0  0  0  0  0  4           0  0  0
   -0.6636   -1.1425   -0.7900 C   0  0  2  0  0  4           0  0  0
   -2.6469   -2.3924   -1.3048 C   0  0  0  0  0  4           0  0  0
   -2.5925   -0.0685   -1.8715 C   0  0  0  0  0  4           0  0  0
   -1.4488   -4.1175   -2.8367 C   0  0  0  0  0  4           0  0  0
   -1.2759   -5.0230   -1.8663 C   0  0  0  0  0  4           0  0  0
   -2.1068   -2.7751   -2.7119 C   0  0  2  0  0  4           0  0  0
   -1.1677   -1.6427   -3.2051 C   0  0  2  0  0  4           0  0  0
   -0.0402   -1.4084   -2.1821 C   0  0  0  0  0  4           0  0  0
   -1.9918   -0.3444   -3.2563 C   0  0  0  0  0  4           0  0  0
  1  5  1  0     0  0
  1 15  1  0     0  0
  2 14  1  0     0  0
  3  6  1  0     0  0
  3  7  2  0     0  0
  4 16  1  0     0  0
  4 17  1  0     0  0
  4 18  1  0     0  0
  5 10  1  0     0  0
  5 11  2  0     0  0
  6  8  1  0     0  0
  6 12  2  0     0  0
  7 13  1  0     0  0
  8  9  1  0     0  0
  8 10  2  0     0  0
  9 13  2  0     0  0
  9 14  1  0     0  0
 11 12  1  0     0  0
 14 16  1  0     0  0
 16 23  1  0     0  0
 17 21  1  0     0  0
 18 24  1  0     0  0
 19 20  2  0     0  0
 19 21  1  0     0  0
 21 22  1  0     0  0
 22 23  1  0     0  0
 22 24  1  0     0  0
M  END
> <standard_type>
pIC50

> <# Confs.>
11

> <canonical_smiles>
O[C@H]([C@@H]1C[C@H]2[C@H](C[N@@]1CC2)C=C)C3=CC=NC4=CC=C(OC)C=C34

> <standard_relation>
=

> <Publication_ID>
nan

> <predicted_activity_value>
nan

> <actual_activity_value>
0.3979400086720376

> <Compound>
Quinidine

> <standard_units>
uM

> hash
7633839035481241312

$$$$
46
XXILIB    08252103503D 0   0.00000     0.00000

 24 27  0     1  0            999 V2000
    1.9697    4.8298   -0.0060 O   0  0  0  0  0  2           0  0  0
   -0.4851   -0.0000    1.3470 O   0  0  0  0  0  2           0  0  0
    4.3090   -0.1828   -0.0021 N   0  0  0  0  0  3           0  0  0
   -2.1467   -1.0352   -0.8526 N   0  0  2  0  0  3           0  0  0
    2.6171    3.6265   -0.0021 C   0  0  0  0  0  4           0  0  0
    3.7145    1.0215   -0.0005 C   0  0  0  0  0  4           0  0  0
    3.5289   -1.2808   -0.0025 C   0  0  0  0  0  4           0  0  0
    2.3091    1.1814    0.0000 C   0  0  0  0  0  4           0  0  0
    1.5126   -0.0000    0.0000 C   0  0  0  0  0  4           0  0  0
    1.7885    2.4997    0.0010 C   0  0  0  0  0  4           0  0  0
    3.9936    3.4460   -0.0005 C   0  0  0  0  0  4           0  0  0
    4.5226    2.1536    0.0006 C   0  0  0  0  0  4           0  0  0
    2.1507   -1.2450   -0.0006 C   0  0  0  0  0  4           0  0  0
    0.0000    0.0000    0.0000 C   0  0  1  0  0  4           0  0  0
    1.6814    5.3628   -1.2960 C   0  0  0  0  0  4           0  0  0
   -0.6636   -1.1425   -0.7900 C   0  0  2  0  0  4           0  0  0
   -2.6690   -2.3036   -1.4171 C   0  0  0  0  0  4           0  0  0
   -2.5612    0.0771   -1.7343 C   0  0  0  0  0  4           0  0  0
   -1.6967   -3.9383   -3.0642 C   0  0  0  0  0  4           0  0  0
   -1.1353   -4.7289   -2.1417 C   0  0  0  0  0  4           0  0  0
   -2.1848   -2.5328   -2.8723 C   0  0  2  0  0  4           0  0  0
   -1.2029   -1.3912   -3.2472 C   0  0  2  0  0  4           0  0  0
   -0.0662   -1.2848   -2.2122 C   0  0  0  0  0  4           0  0  0
   -1.9921   -0.0716   -3.1527 C   0  0  0  0  0  4           0  0  0
  1  5  1  0     0  0
  1 15  1  0     0  0
  2 14  1  0     0  0
  3  6  1  0     0  0
  3  7  2  0     0  0
  4 16  1  0     0  0
  4 17  1  0     0  0
  4 18  1  0     0  0
  5 10  1  0     0  0
  5 11  2  0     0  0
  6  8  1  0     0  0
  6 12  2  0     0  0
  7 13  1  0     0  0
  8  9  1  0     0  0
  8 10  2  0     0  0
  9 13  2  0     0  0
  9 14  1  0     0  0
 11 12  1  0     0  0
 14 16  1  0     0  0
 16 23  1  0     0  0
 17 21  1  0     0  0
 18 24  1  0     0  0
 19 20  2  0     0  0
 19 21  1  0     0  0
 21 22  1  0     0  0
 22 23  1  0     0  0
 22 24  1  0     0  0
M  END
> <standard_type>
pIC50

> <# Confs.>
11

> <canonical_smiles>
O[C@H]([C@@H]1C[C@H]2[C@H](C[N@@]1CC2)C=C)C3=CC=NC4=CC=C(OC)C=C34

> <standard_relation>
=

> <Publication_ID>
nan

> <predicted_activity_value>
nan

> <actual_activity_value>
0.3979400086720376

> <Compound>
Quinidine

> <standard_units>
uM

> hash
7633839035481241312

$$$$
46
XXILIB    08252103503D 0   0.00000     0.00000

 24 27  0     1  0            999 V2000
    1.9697    2.4097   -4.1857 O   0  0  0  0  0  2           0  0  0
   -0.4851   -0.0000    1.3470 O   0  0  0  0  0  2           0  0  0
    4.3090   -0.0933    0.1572 N   0  0  0  0  0  3           0  0  0
   -2.1496   -1.0595   -0.8684 N   0  0  2  0  0  3           0  0  0
    2.6171    1.8115   -3.1417 C   0  0  0  0  0  4           0  0  0
    3.7145    0.5103   -0.8849 C   0  0  0  0  0  4           0  0  0
    3.5289   -0.6425    1.1080 C   0  0  0  0  0  4           0  0  0
    2.3091    0.5907   -1.0231 C   0  0  0  0  0  4           0  0  0
    1.5126   -0.0000    0.0000 C   0  0  0  0  0  4           0  0  0
    1.7885    1.2507   -2.1643 C   0  0  0  0  0  4           0  0  0
    3.9936    1.7226   -2.9846 C   0  0  0  0  0  4           0  0  0
    4.5226    1.0773   -1.8647 C   0  0  0  0  0  4           0  0  0
    2.1507   -0.6230    1.0778 C   0  0  0  0  0  4           0  0  0
    0.0000    0.0000    0.0000 C   0  0  1  0  0  4           0  0  0
    1.6803    3.7943   -4.0108 C   0  0  0  0  0  4           0  0  0
   -0.6636   -1.1425   -0.7900 C   0  0  2  0  0  4           0  0  0
   -2.6469   -2.3924   -1.3048 C   0  0  0  0  0  4           0  0  0
   -2.5925   -0.0685   -1.8715 C   0  0  0  0  0  4           0  0  0
   -1.4488   -4.1175   -2.8367 C   0  0  0  0  0  4           0  0  0
   -0.7800   -4.7783   -1.8841 C   0  0  0  0  0  4           0  0  0
   -2.1068   -2.7751   -2.7119 C   0  0  2  0  0  4           0  0  0
   -1.1677   -1.6427   -3.2051 C   0  0  2  0  0  4           0  0  0
   -0.0402   -1.4084   -2.1821 C   0  0  0  0  0  4           0  0  0
   -1.9918   -0.3444   -3.2563 C   0  0  0  0  0  4           0  0  0
  1  5  1  0     0  0
  1 15  1  0     0  0
  2 14  1  0     0  0
  3  6  1  0     0  0
  3  7  2  0     0  0
  4 16  1  0     0  0
  4 17  1  0     0  0
  4 18  1  0     0  0
  5 10  1  0     0  0
  5 11  2  0     0  0
  6  8  1  0     0  0
  6 12  2  0     0  0
  7 13  1  0     0  0
  8  9  1  0     0  0
  8 10  2  0     0  0
  9 13  2  0     0  0
  9 14  1  0     0  0
 11 12  1  0     0  0
 14 16  1  0     0  0
 16 23  1  0     0  0
 17 21  1  0     0  0
 18 24  1  0     0  0
 19 20  2  0     0  0
 19 21  1  0     0  0
 21 22  1  0     0  0
 22 23  1  0     0  0
 22 24  1  0     0  0
M  END
> <standard_type>
pIC50

> <# Confs.>
11

> <canonical_smiles>
O[C@H]([C@@H]1C[C@H]2[C@H](C[N@@]1CC2)C=C)C3=CC=NC4=CC=C(OC)C=C34

> <standard_relation>
=

> <Publication_ID>
nan

> <predicted_activity_value>
nan

> <actual_activity_value>
0.3979400086720376

> <Compound>
Quinidine

> <standard_units>
uM

> hash
7633839035481241312

$$$$
45
XXILIB    08252103503D 0   0.00000     0.00000

 27 30  0     1  0            999 V2000
   -8.4893   -2.1439    2.6751 S   0  0  0  0  0  2           0  0  0
    1.4232    0.0000   -0.0000 O   0  0  0  0  0  2           0  0  0
    3.9192    1.1594   -0.5594 O   0  0  0  0  0  2           0  0  0
   -6.0551   -1.1338    4.3830 N   0  0  0  0  0  3           0  0  0
   -4.4155   -1.0078    2.7193 N   0  0  1  0  0  3           0  0  0
   -1.9407   -0.0000    1.6688 N   0  0  1  0  0  3           0  0  0
   -8.3359   -2.1056    4.4596 C   0  0  0  0  0  4           0  0  0
   -7.1541   -3.2977    2.3917 C   0  0  0  0  0  4           0  0  0
   -7.1375   -1.7013    5.0783 C   0  0  0  0  0  4           0  0  0
   -5.8415   -3.0263    2.8083 C   0  0  0  0  0  4           0  0  0
   -9.4138   -2.5545    5.2351 C   0  0  0  0  0  4           0  0  0
   -7.4462   -4.5382    1.8112 C   0  0  0  0  0  4           0  0  0
   -7.0529   -1.7542    6.4771 C   0  0  0  0  0  4           0  0  0
   -4.8477   -4.0060    2.6840 C   0  0  0  0  0  4           0  0  0
   -9.3061   -2.6062    6.6239 C   0  0  0  0  0  4           0  0  0
   -6.4474   -5.5027    1.6695 C   0  0  0  0  0  4           0  0  0
   -8.1250   -2.2111    7.2445 C   0  0  0  0  0  4           0  0  0
   -5.1536   -5.2412    2.1151 C   0  0  0  0  0  4           0  0  0
    1.9477    0.0000   -1.3229 C   0  0  0  0  0  4           0  0  0
    0.0000    0.0000    0.0000 C   0  0  0  0  0  4           0  0  0
    3.4691    0.0000   -1.2508 C   0  0  0  0  0  4           0  0  0
   -5.4535   -1.6835    3.3554 C   0  0  0  0  0  4           0  0  0
   -0.4938    0.0000    1.4408 C   0  0  0  0  0  4           0  0  0
   -4.1008   -1.1514    1.2939 C   0  0  0  0  0  4           0  0  0
   -3.7297    0.1129    3.3727 C   0  0  0  0  0  4           0  0  0
   -2.5855   -1.1836    1.0787 C   0  0  0  0  0  4           0  0  0
   -2.2252    0.0491    3.1112 C   0  0  0  0  0  4           0  0  0
  1  7  1  0     0  0
  1  8  1  0     0  0
  2 19  1  0     0  0
  2 20  1  0     0  0
  3 21  1  0     0  0
  4  9  1  0     0  0
  4 22  2  0     0  0
  5 22  1  0     0  0
  5 24  1  0     0  0
  5 25  1  0     0  0
  6 23  1  0     0  0
  6 26  1  0     0  0
  6 27  1  0     0  0
  7  9  1  0     0  0
  7 11  2  0     0  0
  8 10  1  0     0  0
  8 12  2  0     0  0
  9 13  2  0     0  0
 10 14  2  0     0  0
 10 22  1  0     0  0
 11 15  1  0     0  0
 12 16  1  0     0  0
 13 17  1  0     0  0
 14 18  1  0     0  0
 15 17  2  0     0  0
 16 18  2  0     0  0
 19 21  1  0     0  0
 20 23  1  0     0  0
 24 26  1  0     0  0
 25 27  1  0     0  0
M  END
> <standard_type>
pIC50

> <# Confs.>
25

> <canonical_smiles>
OCCOCCN(CC1)CCN1C2=Nc3ccccc3Sc4ccccc24

> <standard_relation>
=

> <Publication_ID>
nan

> <predicted_activity_value>
nan

> <actual_activity_value>
-0.7611758131557315

> <Compound>
Quetiapine

> <standard_units>
uM

> hash
17114518283326109593

$$$$
45
XXILIB    08252103503D 0   0.00000     0.00000

 27 30  0     1  0            999 V2000
   -8.1943    1.0499    4.5469 S   0  0  0  0  0  2           0  0  0
    1.4232    0.0000   -0.0000 O   0  0  0  0  0  2           0  0  0
    3.9192    1.1594   -0.5594 O   0  0  0  0  0  2           0  0  0
   -6.3787    2.3341    2.3294 N   0  0  0  0  0  3           0  0  0
   -4.4320    1.0688    2.6148 N   0  0  1  0  0  3           0  0  0
   -1.9407   -0.0000    1.6688 N   0  0  1  0  0  3           0  0  0
   -8.4633    2.5780    3.6514 C   0  0  0  0  0  4           0  0  0
   -6.6868    1.5644    5.3574 C   0  0  0  0  0  4           0  0  0
   -7.5056    3.0667    2.7422 C   0  0  0  0  0  4           0  0  0
   -5.5545    1.9620    4.6292 C   0  0  0  0  0  4           0  0  0
   -9.6203    3.3205    3.9245 C   0  0  0  0  0  4           0  0  0
   -6.6671    1.6486    6.7550 C   0  0  0  0  0  4           0  0  0
   -7.7397    4.3011    2.1194 C   0  0  0  0  0  4           0  0  0
   -4.4361    2.4796    5.2957 C   0  0  0  0  0  4           0  0  0
   -9.8299    4.5490    3.3000 C   0  0  0  0  0  4           0  0  0
   -5.5419    2.1443    7.4155 C   0  0  0  0  0  4           0  0  0
   -8.8882    5.0415    2.4017 C   0  0  0  0  0  4           0  0  0
   -4.4331    2.5692    6.6867 C   0  0  0  0  0  4           0  0  0
    1.9477    0.0000   -1.3229 C   0  0  0  0  0  4           0  0  0
    0.0000    0.0000    0.0000 C   0  0  0  0  0  4           0  0  0
    3.4691    0.0000   -1.2508 C   0  0  0  0  0  4           0  0  0
   -5.4879    1.8110    3.1373 C   0  0  0  0  0  4           0  0  0
   -0.4938    0.0000    1.4408 C   0  0  0  0  0  4           0  0  0
   -3.7806   -0.0363    3.3260 C   0  0  0  0  0  4           0  0  0
   -4.0729    1.1599    1.1949 C   0  0  0  0  0  4           0  0  0
   -2.2664    0.0000    3.1037 C   0  0  0  0  0  4           0  0  0
   -2.5542    1.1710    1.0237 C   0  0  0  0  0  4           0  0  0
  1  7  1  0     0  0
  1  8  1  0     0  0
  2 19  1  0     0  0
  2 20  1  0     0  0
  3 21  1  0     0  0
  4  9  1  0     0  0
  4 22  2  0     0  0
  5 22  1  0     0  0
  5 24  1  0     0  0
  5 25  1  0     0  0
  6 23  1  0     0  0
  6 26  1  0     0  0
  6 27  1  0     0  0
  7  9  1  0     0  0
  7 11  2  0     0  0
  8 10  1  0     0  0
  8 12  2  0     0  0
  9 13  2  0     0  0
 10 14  2  0     0  0
 10 22  1  0     0  0
 11 15  1  0     0  0
 12 16  1  0     0  0
 13 17  1  0     0  0
 14 18  1  0     0  0
 15 17  2  0     0  0
 16 18  2  0     0  0
 19 21  1  0     0  0
 20 23  1  0     0  0
 24 26  1  0     0  0
 25 27  1  0     0  0
M  END
> <standard_type>
pIC50

> <# Confs.>
25

> <canonical_smiles>
OCCOCCN(CC1)CCN1C2=Nc3ccccc3Sc4ccccc24

> <standard_relation>
=

> <Publication_ID>
nan

> <predicted_activity_value>
nan

> <actual_activity_value>
-0.7611758131557315

> <Compound>
Quetiapine

> <standard_units>
uM

> hash
17114518283326109593

$$$$
45
XXILIB    08252103503D 0   0.00000     0.00000

 27 30  0     1  0            999 V2000
   -6.4166   -4.6801    3.4055 S   0  0  0  0  0  2           0  0  0
    1.4232    0.0000   -0.0000 O   0  0  0  0  0  2           0  0  0
    3.9192    1.1594   -0.5594 O   0  0  0  0  0  2           0  0  0
   -5.3435   -1.9900    4.6255 N   0  0  0  0  0  3           0  0  0
   -4.4155   -1.0078    2.7193 N   0  0  1  0  0  3           0  0  0
   -1.9407   -0.0000    1.6688 N   0  0  1  0  0  3           0  0  0
   -6.8002   -3.9625    5.0008 C   0  0  0  0  0  4           0  0  0
   -7.1124   -3.3608    2.4223 C   0  0  0  0  0  4           0  0  0
   -6.3008   -2.6996    5.3712 C   0  0  0  0  0  4           0  0  0
   -6.6574   -2.0376    2.5309 C   0  0  0  0  0  4           0  0  0
   -7.6619   -4.6594    5.8589 C   0  0  0  0  0  4           0  0  0
   -8.1900   -3.6485    1.5747 C   0  0  0  0  0  4           0  0  0
   -6.6782   -2.1662    6.6121 C   0  0  0  0  0  4           0  0  0
   -7.3059   -1.0130    1.8286 C   0  0  0  0  0  4           0  0  0
   -8.0305   -4.1078    7.0848 C   0  0  0  0  0  4           0  0  0
   -8.8179   -2.6269    0.8605 C   0  0  0  0  0  4           0  0  0
   -7.5418   -2.8605    7.4600 C   0  0  0  0  0  4           0  0  0
   -8.3831   -1.3106    0.9949 C   0  0  0  0  0  4           0  0  0
    1.9477    0.0000   -1.3229 C   0  0  0  0  0  4           0  0  0
    0.0000    0.0000    0.0000 C   0  0  0  0  0  4           0  0  0
    3.4691    0.0000   -1.2508 C   0  0  0  0  0  4           0  0  0
   -5.4535   -1.6835    3.3554 C   0  0  0  0  0  4           0  0  0
   -0.4938    0.0000    1.4408 C   0  0  0  0  0  4           0  0  0
   -4.1008   -1.1514    1.2939 C   0  0  0  0  0  4           0  0  0
   -3.7297    0.1129    3.3727 C   0  0  0  0  0  4           0  0  0
   -2.5855   -1.1836    1.0787 C   0  0  0  0  0  4           0  0  0
   -2.2252    0.0491    3.1112 C   0  0  0  0  0  4           0  0  0
  1  7  1  0     0  0
  1  8  1  0     0  0
  2 19  1  0     0  0
  2 20  1  0     0  0
  3 21  1  0     0  0
  4  9  1  0     0  0
  4 22  2  0     0  0
  5 22  1  0     0  0
  5 24  1  0     0  0
  5 25  1  0     0  0
  6 23  1  0     0  0
  6 26  1  0     0  0
  6 27  1  0     0  0
  7  9  1  0     0  0
  7 11  2  0     0  0
  8 10  1  0     0  0
  8 12  2  0     0  0
  9 13  2  0     0  0
 10 14  2  0     0  0
 10 22  1  0     0  0
 11 15  1  0     0  0
 12 16  1  0     0  0
 13 17  1  0     0  0
 14 18  1  0     0  0
 15 17  2  0     0  0
 16 18  2  0     0  0
 19 21  1  0     0  0
 20 23  1  0     0  0
 24 26  1  0     0  0
 25 27  1  0     0  0
M  END
> <standard_type>
pIC50

> <# Confs.>
25

> <canonical_smiles>
OCCOCCN(CC1)CCN1C2=Nc3ccccc3Sc4ccccc24

> <standard_relation>
=

> <Publication_ID>
nan

> <predicted_activity_value>
nan

> <actual_activity_value>
-0.7611758131557315

> <Compound>
Quetiapine

> <standard_units>
uM

> hash
17114518283326109593

$$$$
45
XXILIB    08252103503D 0   0.00000     0.00000

 27 30  0     1  0            999 V2000
   -7.7632   -0.8173    5.3112 S   0  0  0  0  0  2           0  0  0
    1.4232    0.0000   -0.0000 O   0  0  0  0  0  2           0  0  0
    3.9192    1.1594   -0.5594 O   0  0  0  0  0  2           0  0  0
   -6.5282   -2.0050    2.6766 N   0  0  0  0  0  3           0  0  0
   -4.4155   -1.0078    2.7193 N   0  0  1  0  0  3           0  0  0
   -1.9407   -0.0000    1.6688 N   0  0  1  0  0  3           0  0  0
   -8.3734   -2.1819    4.3250 C   0  0  0  0  0  4           0  0  0
   -6.2164   -1.5827    5.7729 C   0  0  0  0  0  4           0  0  0
   -7.6563   -2.6528    3.2090 C   0  0  0  0  0  4           0  0  0
   -5.2823   -2.0016    4.8129 C   0  0  0  0  0  4           0  0  0
   -9.5584   -2.8172    4.7213 C   0  0  0  0  0  4           0  0  0
   -5.9673   -1.8343    7.1282 C   0  0  0  0  0  4           0  0  0
   -8.1578   -3.7584    2.5068 C   0  0  0  0  0  4           0  0  0
   -4.1348   -2.7013    5.2094 C   0  0  0  0  0  4           0  0  0
  -10.0354   -3.9193    4.0137 C   0  0  0  0  0  4           0  0  0
   -4.8116   -2.5123    7.5190 C   0  0  0  0  0  4           0  0  0
   -9.3341   -4.3919    2.9091 C   0  0  0  0  0  4           0  0  0
   -3.9023   -2.9536    6.5608 C   0  0  0  0  0  4           0  0  0
    1.9477    0.0000   -1.3229 C   0  0  0  0  0  4           0  0  0
    0.0000    0.0000    0.0000 C   0  0  0  0  0  4           0  0  0
    3.4691    0.0000   -1.2508 C   0  0  0  0  0  4           0  0  0
   -5.4535   -1.6835    3.3554 C   0  0  0  0  0  4           0  0  0
   -0.4938    0.0000    1.4408 C   0  0  0  0  0  4           0  0  0
   -4.1008   -1.1514    1.2939 C   0  0  0  0  0  4           0  0  0
   -3.7297    0.1129    3.3727 C   0  0  0  0  0  4           0  0  0
   -2.5855   -1.1836    1.0787 C   0  0  0  0  0  4           0  0  0
   -2.2252    0.0491    3.1112 C   0  0  0  0  0  4           0  0  0
  1  7  1  0     0  0
  1  8  1  0     0  0
  2 19  1  0     0  0
  2 20  1  0     0  0
  3 21  1  0     0  0
  4  9  1  0     0  0
  4 22  2  0     0  0
  5 22  1  0     0  0
  5 24  1  0     0  0
  5 25  1  0     0  0
  6 23  1  0     0  0
  6 26  1  0     0  0
  6 27  1  0     0  0
  7  9  1  0     0  0
  7 11  2  0     0  0
  8 10  1  0     0  0
  8 12  2  0     0  0
  9 13  2  0     0  0
 10 14  2  0     0  0
 10 22  1  0     0  0
 11 15  1  0     0  0
 12 16  1  0     0  0
 13 17  1  0     0  0
 14 18  1  0     0  0
 15 17  2  0     0  0
 16 18  2  0     0  0
 19 21  1  0     0  0
 20 23  1  0     0  0
 24 26  1  0     0  0
 25 27  1  0     0  0
M  END
> <standard_type>
pIC50

> <# Confs.>
25

> <canonical_smiles>
OCCOCCN(CC1)CCN1C2=Nc3ccccc3Sc4ccccc24

> <standard_relation>
=

> <Publication_ID>
nan

> <predicted_activity_value>
nan

> <actual_activity_value>
-0.7611758131557315

> <Compound>
Quetiapine

> <standard_units>
uM

> hash
17114518283326109593

$$$$
45
XXILIB    08252103503D 0   0.00000     0.00000

 27 30  0     1  0            999 V2000
   -5.6616   -3.3347    6.0239 S   0  0  0  0  0  2           0  0  0
    1.4232    0.0000   -0.0000 O   0  0  0  0  0  2           0  0  0
    3.9192    1.1594   -0.5594 O   0  0  0  0  0  2           0  0  0
   -5.8228   -2.8652    2.9229 N   0  0  0  0  0  3           0  0  0
   -4.4155   -1.0078    2.7193 N   0  0  1  0  0  3           0  0  0
   -1.9407   -0.0000    1.6688 N   0  0  1  0  0  3           0  0  0
   -6.8325   -4.0353    4.8630 C   0  0  0  0  0  4           0  0  0
   -6.1546   -1.6326    5.7912 C   0  0  0  0  0  4           0  0  0
   -6.8278   -3.6564    3.5070 C   0  0  0  0  0  4           0  0  0
   -6.0957   -1.0112    4.5340 C   0  0  0  0  0  4           0  0  0
   -7.8057   -4.9216    5.3446 C   0  0  0  0  0  4           0  0  0
   -6.6893   -0.9304    6.8783 C   0  0  0  0  0  4           0  0  0
   -7.8095   -4.1876    2.6581 C   0  0  0  0  0  4           0  0  0
   -6.6091    0.2813    4.3638 C   0  0  0  0  0  4           0  0  0
   -8.7772   -5.4322    4.4852 C   0  0  0  0  0  4           0  0  0
   -7.1792    0.3654    6.7082 C   0  0  0  0  0  4           0  0  0
   -8.7824   -5.0619    3.1439 C   0  0  0  0  0  4           0  0  0
   -7.1493    0.9656    5.4513 C   0  0  0  0  0  4           0  0  0
    1.9477    0.0000   -1.3229 C   0  0  0  0  0  4           0  0  0
    0.0000    0.0000    0.0000 C   0  0  0  0  0  4           0  0  0
    3.4691    0.0000   -1.2508 C   0  0  0  0  0  4           0  0  0
   -5.4535   -1.6835    3.3554 C   0  0  0  0  0  4           0  0  0
   -0.4938    0.0000    1.4408 C   0  0  0  0  0  4           0  0  0
   -4.1008   -1.1514    1.2939 C   0  0  0  0  0  4           0  0  0
   -3.7297    0.1129    3.3727 C   0  0  0  0  0  4           0  0  0
   -2.5855   -1.1836    1.0787 C   0  0  0  0  0  4           0  0  0
   -2.2252    0.0491    3.1112 C   0  0  0  0  0  4           0  0  0
  1  7  1  0     0  0
  1  8  1  0     0  0
  2 19  1  0     0  0
  2 20  1  0     0  0
  3 21  1  0     0  0
  4  9  1  0     0  0
  4 22  2  0     0  0
  5 22  1  0     0  0
  5 24  1  0     0  0
  5 25  1  0     0  0
  6 23  1  0     0  0
  6 26  1  0     0  0
  6 27  1  0     0  0
  7  9  1  0     0  0
  7 11  2  0     0  0
  8 10  1  0     0  0
  8 12  2  0     0  0
  9 13  2  0     0  0
 10 14  2  0     0  0
 10 22  1  0     0  0
 11 15  1  0     0  0
 12 16  1  0     0  0
 13 17  1  0     0  0
 14 18  1  0     0  0
 15 17  2  0     0  0
 16 18  2  0     0  0
 19 21  1  0     0  0
 20 23  1  0     0  0
 24 26  1  0     0  0
 25 27  1  0     0  0
M  END
> <standard_type>
pIC50

> <# Confs.>
25

> <canonical_smiles>
OCCOCCN(CC1)CCN1C2=Nc3ccccc3Sc4ccccc24

> <standard_relation>
=

> <Publication_ID>
nan

> <predicted_activity_value>
nan

> <actual_activity_value>
-0.7611758131557315

> <Compound>
Quetiapine

> <standard_units>
uM

> hash
17114518283326109593

$$$$
45
XXILIB    08252103503D 0   0.00000     0.00000

 27 30  0     1  0            999 V2000
   -6.0235    3.2222    5.8997 S   0  0  0  0  0  2           0  0  0
    1.4232    0.0000   -0.0000 O   0  0  0  0  0  2           0  0  0
    3.9192    1.1594   -0.5594 O   0  0  0  0  0  2           0  0  0
   -5.6336    3.0656    2.7853 N   0  0  0  0  0  3           0  0  0
   -4.4320    1.0688    2.6148 N   0  0  1  0  0  3           0  0  0
   -1.9407   -0.0000    1.6688 N   0  0  1  0  0  3           0  0  0
   -6.8579    4.1764    4.6347 C   0  0  0  0  0  4           0  0  0
   -6.6451    1.6276    5.3875 C   0  0  0  0  0  4           0  0  0
   -6.6323    3.9292    3.2674 C   0  0  0  0  0  4           0  0  0
   -6.4101    1.1204    4.1002 C   0  0  0  0  0  4           0  0  0
   -7.7923    5.1428    5.0318 C   0  0  0  0  0  4           0  0  0
   -7.4492    0.9011    6.2752 C   0  0  0  0  0  4           0  0  0
   -7.3542    4.6732    2.3228 C   0  0  0  0  0  4           0  0  0
   -7.0111   -0.0802    3.6990 C   0  0  0  0  0  4           0  0  0
   -8.5045    5.8660    4.0766 C   0  0  0  0  0  4           0  0  0
   -8.0273   -0.3053    5.8772 C   0  0  0  0  0  4           0  0  0
   -8.2884    5.6293    2.7229 C   0  0  0  0  0  4           0  0  0
   -7.8167   -0.7898    4.5885 C   0  0  0  0  0  4           0  0  0
    1.9477    0.0000   -1.3229 C   0  0  0  0  0  4           0  0  0
    0.0000    0.0000    0.0000 C   0  0  0  0  0  4           0  0  0
    3.4691    0.0000   -1.2508 C   0  0  0  0  0  4           0  0  0
   -5.4879    1.8110    3.1373 C   0  0  0  0  0  4           0  0  0
   -0.4938    0.0000    1.4408 C   0  0  0  0  0  4           0  0  0
   -3.7806   -0.0363    3.3260 C   0  0  0  0  0  4           0  0  0
   -4.0729    1.1599    1.1949 C   0  0  0  0  0  4           0  0  0
   -2.2664    0.0000    3.1037 C   0  0  0  0  0  4           0  0  0
   -2.5542    1.1710    1.0237 C   0  0  0  0  0  4           0  0  0
  1  7  1  0     0  0
  1  8  1  0     0  0
  2 19  1  0     0  0
  2 20  1  0     0  0
  3 21  1  0     0  0
  4  9  1  0     0  0
  4 22  2  0     0  0
  5 22  1  0     0  0
  5 24  1  0     0  0
  5 25  1  0     0  0
  6 23  1  0     0  0
  6 26  1  0     0  0
  6 27  1  0     0  0
  7  9  1  0     0  0
  7 11  2  0     0  0
  8 10  1  0     0  0
  8 12  2  0     0  0
  9 13  2  0     0  0
 10 14  2  0     0  0
 10 22  1  0     0  0
 11 15  1  0     0  0
 12 16  1  0     0  0
 13 17  1  0     0  0
 14 18  1  0     0  0
 15 17  2  0     0  0
 16 18  2  0     0  0
 19 21  1  0     0  0
 20 23  1  0     0  0
 24 26  1  0     0  0
 25 27  1  0     0  0
M  END
> <standard_type>
pIC50

> <# Confs.>
25

> <canonical_smiles>
OCCOCCN(CC1)CCN1C2=Nc3ccccc3Sc4ccccc24

> <standard_relation>
=

> <Publication_ID>
nan

> <predicted_activity_value>
nan

> <actual_activity_value>
-0.7611758131557315

> <Compound>
Quetiapine

> <standard_units>
uM

> hash
17114518283326109593

$$$$
45
XXILIB    08252103503D 0   0.00000     0.00000

 27 30  0     1  0            999 V2000
   -8.2815    2.7396    2.0223 S   0  0  0  0  0  2           0  0  0
    1.4232    0.0000   -0.0000 O   0  0  0  0  0  2           0  0  0
    3.9192    1.1594   -0.5594 O   0  0  0  0  0  2           0  0  0
   -6.3236    1.2461    3.9750 N   0  0  0  0  0  3           0  0  0
   -4.4320    1.0688    2.6148 N   0  0  1  0  0  3           0  0  0
   -1.9407   -0.0000    1.6688 N   0  0  1  0  0  3           0  0  0
   -8.4581    2.4959    3.7877 C   0  0  0  0  0  4           0  0  0
   -6.7942    3.7258    2.1062 C   0  0  0  0  0  4           0  0  0
   -7.4461    1.8734    4.5426 C   0  0  0  0  0  4           0  0  0
   -5.6162    3.2399    2.6942 C   0  0  0  0  0  4           0  0  0
   -9.6057    2.9929    4.4208 C   0  0  0  0  0  4           0  0  0
   -6.8329    5.0446    1.6356 C   0  0  0  0  0  4           0  0  0
   -7.6183    1.7578    5.9296 C   0  0  0  0  0  4           0  0  0
   -4.5076    4.0837    2.8443 C   0  0  0  0  0  4           0  0  0
   -9.7536    2.8742    5.8017 C   0  0  0  0  0  4           0  0  0
   -5.7180    5.8737    1.7679 C   0  0  0  0  0  4           0  0  0
   -8.7593    2.2601    6.5564 C   0  0  0  0  0  4           0  0  0
   -4.5612    5.3972    2.3799 C   0  0  0  0  0  4           0  0  0
    1.9477    0.0000   -1.3229 C   0  0  0  0  0  4           0  0  0
    0.0000    0.0000    0.0000 C   0  0  0  0  0  4           0  0  0
    3.4691    0.0000   -1.2508 C   0  0  0  0  0  4           0  0  0
   -5.4879    1.8110    3.1373 C   0  0  0  0  0  4           0  0  0
   -0.4938    0.0000    1.4408 C   0  0  0  0  0  4           0  0  0
   -3.7806   -0.0363    3.3260 C   0  0  0  0  0  4           0  0  0
   -4.0729    1.1599    1.1949 C   0  0  0  0  0  4           0  0  0
   -2.2664    0.0000    3.1037 C   0  0  0  0  0  4           0  0  0
   -2.5542    1.1710    1.0237 C   0  0  0  0  0  4           0  0  0
  1  7  1  0     0  0
  1  8  1  0     0  0
  2 19  1  0     0  0
  2 20  1  0     0  0
  3 21  1  0     0  0
  4  9  1  0     0  0
  4 22  2  0     0  0
  5 22  1  0     0  0
  5 24  1  0     0  0
  5 25  1  0     0  0
  6 23  1  0     0  0
  6 26  1  0     0  0
  6 27  1  0     0  0
  7  9  1  0     0  0
  7 11  2  0     0  0
  8 10  1  0     0  0
  8 12  2  0     0  0
  9 13  2  0     0  0
 10 14  2  0     0  0
 10 22  1  0     0  0
 11 15  1  0     0  0
 12 16  1  0     0  0
 13 17  1  0     0  0
 14 18  1  0     0  0
 15 17  2  0     0  0
 16 18  2  0     0  0
 19 21  1  0     0  0
 20 23  1  0     0  0
 24 26  1  0     0  0
 25 27  1  0     0  0
M  END
> <standard_type>
pIC50

> <# Confs.>
25

> <canonical_smiles>
OCCOCCN(CC1)CCN1C2=Nc3ccccc3Sc4ccccc24

> <standard_relation>
=

> <Publication_ID>
nan

> <predicted_activity_value>
nan

> <actual_activity_value>
-0.7611758131557315

> <Compound>
Quetiapine

> <standard_units>
uM

> hash
17114518283326109593

$$$$
45
XXILIB    08252103503D 0   0.00000     0.00000

 27 30  0     1  0            999 V2000
   -8.7724    1.0940    0.8788 S   0  0  0  0  0  2           0  0  0
    1.4232    0.0000   -0.0000 O   0  0  0  0  0  2           0  0  0
    3.9192    1.1594   -0.5594 O   0  0  0  0  0  2           0  0  0
   -6.6844   -1.2003    0.3896 N   0  0  0  0  0  3           0  0  0
   -4.7037   -0.0611    0.8906 N   0  0  1  0  0  3           0  0  0
   -1.9407   -0.0000    1.6688 N   0  0  1  0  0  3           0  0  0
   -9.0310   -0.4724    0.0488 C   0  0  0  0  0  4           0  0  0
   -7.5760    1.7334   -0.2848 C   0  0  0  0  0  4           0  0  0
   -7.9644   -1.3654   -0.1686 C   0  0  0  0  0  4           0  0  0
   -6.3706    1.0643   -0.5486 C   0  0  0  0  0  4           0  0  0
  -10.3091   -0.7660   -0.4461 C   0  0  0  0  0  4           0  0  0
   -7.8908    2.8895   -1.0095 C   0  0  0  0  0  4           0  0  0
   -8.2127   -2.5469   -0.8819 C   0  0  0  0  0  4           0  0  0
   -5.5163    1.5265   -1.5583 C   0  0  0  0  0  4           0  0  0
  -10.5327   -1.9427   -1.1591 C   0  0  0  0  0  4           0  0  0
   -7.0256    3.3584   -1.9993 C   0  0  0  0  0  4           0  0  0
   -9.4844   -2.8305   -1.3813 C   0  0  0  0  0  4           0  0  0
   -5.8464    2.6720   -2.2806 C   0  0  0  0  0  4           0  0  0
    1.9477    0.0000   -1.3229 C   0  0  0  0  0  4           0  0  0
    0.0000    0.0000   -0.0000 C   0  0  0  0  0  4           0  0  0
    3.4691    0.0000   -1.2508 C   0  0  0  0  0  4           0  0  0
   -5.9418   -0.1275    0.2570 C   0  0  0  0  0  4           0  0  0
   -0.4938    0.0000    1.4408 C   0  0  0  0  0  4           0  0  0
   -4.0910    1.1877    1.3559 C   0  0  0  0  0  4           0  0  0
   -4.0424   -1.2728    1.3881 C   0  0  0  0  0  4           0  0  0
   -2.5855    1.1836    1.0787 C   0  0  0  0  0  4           0  0  0
   -2.5409   -1.2201    1.1077 C   0  0  0  0  0  4           0  0  0
  1  7  1  0     0  0
  1  8  1  0     0  0
  2 19  1  0     0  0
  2 20  1  0     0  0
  3 21  1  0     0  0
  4  9  1  0     0  0
  4 22  2  0     0  0
  5 22  1  0     0  0
  5 24  1  0     0  0
  5 25  1  0     0  0
  6 23  1  0     0  0
  6 26  1  0     0  0
  6 27  1  0     0  0
  7  9  1  0     0  0
  7 11  2  0     0  0
  8 10  1  0     0  0
  8 12  2  0     0  0
  9 13  2  0     0  0
 10 14  2  0     0  0
 10 22  1  0     0  0
 11 15  1  0     0  0
 12 16  1  0     0  0
 13 17  1  0     0  0
 14 18  1  0     0  0
 15 17  2  0     0  0
 16 18  2  0     0  0
 19 21  1  0     0  0
 20 23  1  0     0  0
 24 26  1  0     0  0
 25 27  1  0     0  0
M  END
> <standard_type>
pIC50

> <# Confs.>
25

> <canonical_smiles>
OCCOCCN(CC1)CCN1C2=Nc3ccccc3Sc4ccccc24

> <standard_relation>
=

> <Publication_ID>
nan

> <predicted_activity_value>
nan

> <actual_activity_value>
-0.7611758131557315

> <Compound>
Quetiapine

> <standard_units>
uM

> hash
17114518283326109593

$$$$
45
XXILIB    08252103503D 0   0.00000     0.00000

 27 30  0     1  0            999 V2000
   -7.2854    1.4578   -2.1075 S   0  0  0  0  0  2           0  0  0
    1.4232    0.0000   -0.0000 O   0  0  0  0  0  2           0  0  0
    3.9192    1.1594   -0.5594 O   0  0  0  0  0  2           0  0  0
   -6.1701   -1.0756   -0.6195 N   0  0  0  0  0  3           0  0  0
   -4.7037   -0.0611    0.8906 N   0  0  1  0  0  3           0  0  0
   -1.9407   -0.0000    1.6688 N   0  0  1  0  0  3           0  0  0
   -7.9263   -0.2140   -2.1448 C   0  0  0  0  0  4           0  0  0
   -7.5513    1.7331   -0.3625 C   0  0  0  0  0  4           0  0  0
   -7.3602   -1.2296   -1.3514 C   0  0  0  0  0  4           0  0  0
   -6.9595    0.9172    0.6140 C   0  0  0  0  0  4           0  0  0
   -9.0487   -0.4834   -2.9401 C   0  0  0  0  0  4           0  0  0
   -8.4330    2.7473    0.0329 C   0  0  0  0  0  4           0  0  0
   -7.9383   -2.5070   -1.3834 C   0  0  0  0  0  4           0  0  0
   -7.2843    1.0932    1.9658 C   0  0  0  0  0  4           0  0  0
   -9.6122   -1.7582   -2.9516 C   0  0  0  0  0  4           0  0  0
   -8.7356    2.9322    1.3828 C   0  0  0  0  0  4           0  0  0
   -9.0597   -2.7688   -2.1713 C   0  0  0  0  0  4           0  0  0
   -8.1701    2.1004    2.3462 C   0  0  0  0  0  4           0  0  0
    1.9477    0.0000   -1.3229 C   0  0  0  0  0  4           0  0  0
    0.0000    0.0000   -0.0000 C   0  0  0  0  0  4           0  0  0
    3.4691    0.0000   -1.2508 C   0  0  0  0  0  4           0  0  0
   -5.9418   -0.1275    0.2570 C   0  0  0  0  0  4           0  0  0
   -0.4938    0.0000    1.4408 C   0  0  0  0  0  4           0  0  0
   -4.0910    1.1877    1.3559 C   0  0  0  0  0  4           0  0  0
   -4.0424   -1.2728    1.3881 C   0  0  0  0  0  4           0  0  0
   -2.5855    1.1836    1.0787 C   0  0  0  0  0  4           0  0  0
   -2.5409   -1.2201    1.1077 C   0  0  0  0  0  4           0  0  0
  1  7  1  0     0  0
  1  8  1  0     0  0
  2 19  1  0     0  0
  2 20  1  0     0  0
  3 21  1  0     0  0
  4  9  1  0     0  0
  4 22  2  0     0  0
  5 22  1  0     0  0
  5 24  1  0     0  0
  5 25  1  0     0  0
  6 23  1  0     0  0
  6 26  1  0     0  0
  6 27  1  0     0  0
  7  9  1  0     0  0
  7 11  2  0     0  0
  8 10  1  0     0  0
  8 12  2  0     0  0
  9 13  2  0     0  0
 10 14  2  0     0  0
 10 22  1  0     0  0
 11 15  1  0     0  0
 12 16  1  0     0  0
 13 17  1  0     0  0
 14 18  1  0     0  0
 15 17  2  0     0  0
 16 18  2  0     0  0
 19 21  1  0     0  0
 20 23  1  0     0  0
 24 26  1  0     0  0
 25 27  1  0     0  0
M  END
> <standard_type>
pIC50

> <# Confs.>
25

> <canonical_smiles>
OCCOCCN(CC1)CCN1C2=Nc3ccccc3Sc4ccccc24

> <standard_relation>
=

> <Publication_ID>
nan

> <predicted_activity_value>
nan

> <actual_activity_value>
-0.7611758131557315

> <Compound>
Quetiapine

> <standard_units>
uM

> hash
17114518283326109593

$$$$
45
XXILIB    08252103503D 0   0.00000     0.00000

 27 30  0     1  0            999 V2000
   -0.0809    7.2756    5.5568 S   0  0  0  0  0  2           0  0  0
    1.4232    0.0000   -0.0000 O   0  0  0  0  0  2           0  0  0
    3.9192    1.1594   -0.5594 O   0  0  0  0  0  2           0  0  0
   -0.8724    4.2968    6.1592 N   0  0  0  0  0  3           0  0  0
   -0.5651    3.3578    4.0389 N   0  0  1  0  0  3           0  0  0
   -0.1034    1.1213    2.2985 N   0  0  1  0  0  3           0  0  0
   -0.9231    6.6298    7.0002 C   0  0  0  0  0  4           0  0  0
   -1.3529    6.8383    4.3799 C   0  0  0  0  0  4           0  0  0
   -1.2867    5.2722    7.0835 C   0  0  0  0  0  4           0  0  0
   -1.7715    5.5103    4.2032 C   0  0  0  0  0  4           0  0  0
   -1.2786    7.5196    8.0232 C   0  0  0  0  0  4           0  0  0
   -2.0021    7.8608    3.6771 C   0  0  0  0  0  4           0  0  0
   -2.0025    4.8366    8.2080 C   0  0  0  0  0  4           0  0  0
   -2.8572    5.2208    3.3662 C   0  0  0  0  0  4           0  0  0
   -1.9967    7.0672    9.1290 C   0  0  0  0  0  4           0  0  0
   -3.0690    7.5646    2.8274 C   0  0  0  0  0  4           0  0  0
   -2.3628    5.7278    9.2193 C   0  0  0  0  0  4           0  0  0
   -3.5026    6.2488    2.6809 C   0  0  0  0  0  4           0  0  0
    1.9477    0.0000   -1.3229 C   0  0  0  0  0  4           0  0  0
   -0.0000    0.0000    0.0000 C   0  0  0  0  0  4           0  0  0
    3.4691    0.0000   -1.2508 C   0  0  0  0  0  4           0  0  0
   -1.0559    4.3674    4.8626 C   0  0  0  0  0  4           0  0  0
   -0.4938   -0.0000    1.4408 C   0  0  0  0  0  4           0  0  0
   -0.1347    3.5720    2.6532 C   0  0  0  0  0  4           0  0  0
   -0.1823    2.0521    4.5884 C   0  0  0  0  0  4           0  0  0
   -0.5808    2.4071    1.7657 C   0  0  0  0  0  4           0  0  0
   -0.6293    0.9249    3.6581 C   0  0  0  0  0  4           0  0  0
  1  7  1  0     0  0
  1  8  1  0     0  0
  2 19  1  0     0  0
  2 20  1  0     0  0
  3 21  1  0     0  0
  4  9  1  0     0  0
  4 22  2  0     0  0
  5 22  1  0     0  0
  5 24  1  0     0  0
  5 25  1  0     0  0
  6 23  1  0     0  0
  6 26  1  0     0  0
  6 27  1  0     0  0
  7  9  1  0     0  0
  7 11  2  0     0  0
  8 10  1  0     0  0
  8 12  2  0     0  0
  9 13  2  0     0  0
 10 14  2  0     0  0
 10 22  1  0     0  0
 11 15  1  0     0  0
 12 16  1  0     0  0
 13 17  1  0     0  0
 14 18  1  0     0  0
 15 17  2  0     0  0
 16 18  2  0     0  0
 19 21  1  0     0  0
 20 23  1  0     0  0
 24 26  1  0     0  0
 25 27  1  0     0  0
M  END
> <standard_type>
pIC50

> <# Confs.>
25

> <canonical_smiles>
OCCOCCN(CC1)CCN1C2=Nc3ccccc3Sc4ccccc24

> <standard_relation>
=

> <Publication_ID>
nan

> <predicted_activity_value>
nan

> <actual_activity_value>
-0.7611758131557315

> <Compound>
Quetiapine

> <standard_units>
uM

> hash
17114518283326109593

$$$$
45
XXILIB    08252103503D 0   0.00000     0.00000

 27 30  0     1  0            999 V2000
   -3.2042    6.6406    4.5064 S   0  0  0  0  0  2           0  0  0
    1.4232    0.0000   -0.0000 O   0  0  0  0  0  2           0  0  0
    3.9192    1.1594   -0.5594 O   0  0  0  0  0  2           0  0  0
   -1.9290    4.0739    5.7958 N   0  0  0  0  0  3           0  0  0
   -0.5651    3.3578    4.0389 N   0  0  1  0  0  3           0  0  0
   -0.1034    1.1213    2.2985 N   0  0  1  0  0  3           0  0  0
   -3.2189    6.1481    6.2281 C   0  0  0  0  0  4           0  0  0
   -1.4329    6.8271    4.3688 C   0  0  0  0  0  4           0  0  0
   -2.5257    5.0036    6.6650 C   0  0  0  0  0  4           0  0  0
   -0.5546    5.7622    4.6225 C   0  0  0  0  0  4           0  0  0
   -3.8897    6.9617    7.1518 C   0  0  0  0  0  4           0  0  0
   -0.9097    8.0917    4.0698 C   0  0  0  0  0  4           0  0  0
   -2.5304    4.6976    8.0337 C   0  0  0  0  0  4           0  0  0
    0.8299    5.9784    4.6169 C   0  0  0  0  0  4           0  0  0
   -3.8756    6.6436    8.5087 C   0  0  0  0  0  4           0  0  0
    0.4707    8.2959    4.0439 C   0  0  0  0  0  4           0  0  0
   -3.1937    5.5142    8.9502 C   0  0  0  0  0  4           0  0  0
    1.3384    7.2438    4.3267 C   0  0  0  0  0  4           0  0  0
    1.9477    0.0000   -1.3229 C   0  0  0  0  0  4           0  0  0
   -0.0000    0.0000    0.0000 C   0  0  0  0  0  4           0  0  0
    3.4691    0.0000   -1.2508 C   0  0  0  0  0  4           0  0  0
   -1.0559    4.3674    4.8626 C   0  0  0  0  0  4           0  0  0
   -0.4938   -0.0000    1.4408 C   0  0  0  0  0  4           0  0  0
   -0.1347    3.5720    2.6532 C   0  0  0  0  0  4           0  0  0
   -0.1823    2.0521    4.5884 C   0  0  0  0  0  4           0  0  0
   -0.5808    2.4071    1.7657 C   0  0  0  0  0  4           0  0  0
   -0.6293    0.9249    3.6581 C   0  0  0  0  0  4           0  0  0
  1  7  1  0     0  0
  1  8  1  0     0  0
  2 19  1  0     0  0
  2 20  1  0     0  0
  3 21  1  0     0  0
  4  9  1  0     0  0
  4 22  2  0     0  0
  5 22  1  0     0  0
  5 24  1  0     0  0
  5 25  1  0     0  0
  6 23  1  0     0  0
  6 26  1  0     0  0
  6 27  1  0     0  0
  7  9  1  0     0  0
  7 11  2  0     0  0
  8 10  1  0     0  0
  8 12  2  0     0  0
  9 13  2  0     0  0
 10 14  2  0     0  0
 10 22  1  0     0  0
 11 15  1  0     0  0
 12 16  1  0     0  0
 13 17  1  0     0  0
 14 18  1  0     0  0
 15 17  2  0     0  0
 16 18  2  0     0  0
 19 21  1  0     0  0
 20 23  1  0     0  0
 24 26  1  0     0  0
 25 27  1  0     0  0
M  END
> <standard_type>
pIC50

> <# Confs.>
25

> <canonical_smiles>
OCCOCCN(CC1)CCN1C2=Nc3ccccc3Sc4ccccc24

> <standard_relation>
=

> <Publication_ID>
nan

> <predicted_activity_value>
nan

> <actual_activity_value>
-0.7611758131557315

> <Compound>
Quetiapine

> <standard_units>
uM

> hash
17114518283326109593

$$$$
45
XXILIB    08252103503D 0   0.00000     0.00000

 27 30  0     1  0            999 V2000
   -6.0814    4.8913    3.3606 S   0  0  0  0  0  2           0  0  0
    1.4232    0.0000   -0.0000 O   0  0  0  0  0  2           0  0  0
    3.9192    1.1594   -0.5594 O   0  0  0  0  0  2           0  0  0
   -5.5847    1.9820    4.4339 N   0  0  0  0  0  3           0  0  0
   -4.4320    1.0688    2.6148 N   0  0  1  0  0  3           0  0  0
   -1.9407   -0.0000    1.6688 N   0  0  1  0  0  3           0  0  0
   -6.8474    4.0906    4.7683 C   0  0  0  0  0  4           0  0  0
   -6.7322    3.7747    2.1262 C   0  0  0  0  0  4           0  0  0
   -6.5812    2.7418    5.0719 C   0  0  0  0  0  4           0  0  0
   -6.4692    2.3965    2.1639 C   0  0  0  0  0  4           0  0  0
   -7.7769    4.8146    5.5277 C   0  0  0  0  0  4           0  0  0
   -7.5929    4.2815    1.1447 C   0  0  0  0  0  4           0  0  0
   -7.2598    2.1488    6.1463 C   0  0  0  0  0  4           0  0  0
   -7.0989    1.5354    1.2556 C   0  0  0  0  0  4           0  0  0
   -8.4459    4.2037    6.5871 C   0  0  0  0  0  4           0  0  0
   -8.2005    3.4221    0.2282 C   0  0  0  0  0  4           0  0  0
   -8.1915    2.8704    6.8933 C   0  0  0  0  0  4           0  0  0
   -7.9627    2.0508    0.2905 C   0  0  0  0  0  4           0  0  0
    1.9477    0.0000   -1.3229 C   0  0  0  0  0  4           0  0  0
    0.0000    0.0000    0.0000 C   0  0  0  0  0  4           0  0  0
    3.4691    0.0000   -1.2508 C   0  0  0  0  0  4           0  0  0
   -5.4879    1.8110    3.1373 C   0  0  0  0  0  4           0  0  0
   -0.4938    0.0000    1.4408 C   0  0  0  0  0  4           0  0  0
   -3.7806   -0.0363    3.3260 C   0  0  0  0  0  4           0  0  0
   -4.0729    1.1599    1.1949 C   0  0  0  0  0  4           0  0  0
   -2.2664    0.0000    3.1037 C   0  0  0  0  0  4           0  0  0
   -2.5542    1.1710    1.0237 C   0  0  0  0  0  4           0  0  0
  1  7  1  0     0  0
  1  8  1  0     0  0
  2 19  1  0     0  0
  2 20  1  0     0  0
  3 21  1  0     0  0
  4  9  1  0     0  0
  4 22  2  0     0  0
  5 22  1  0     0  0
  5 24  1  0     0  0
  5 25  1  0     0  0
  6 23  1  0     0  0
  6 26  1  0     0  0
  6 27  1  0     0  0
  7  9  1  0     0  0
  7 11  2  0     0  0
  8 10  1  0     0  0
  8 12  2  0     0  0
  9 13  2  0     0  0
 10 14  2  0     0  0
 10 22  1  0     0  0
 11 15  1  0     0  0
 12 16  1  0     0  0
 13 17  1  0     0  0
 14 18  1  0     0  0
 15 17  2  0     0  0
 16 18  2  0     0  0
 19 21  1  0     0  0
 20 23  1  0     0  0
 24 26  1  0     0  0
 25 27  1  0     0  0
M  END
> <standard_type>
pIC50

> <# Confs.>
25

> <canonical_smiles>
OCCOCCN(CC1)CCN1C2=Nc3ccccc3Sc4ccccc24

> <standard_relation>
=

> <Publication_ID>
nan

> <predicted_activity_value>
nan

> <actual_activity_value>
-0.7611758131557315

> <Compound>
Quetiapine

> <standard_units>
uM

> hash
17114518283326109593

$$$$
45
XXILIB    08252103503D 0   0.00000     0.00000

 27 30  0     1  0            999 V2000
   -2.5604    4.7441    6.7563 S   0  0  0  0  0  2           0  0  0
    1.4232    0.0000   -0.0000 O   0  0  0  0  0  2           0  0  0
    3.9192    1.1594   -0.5594 O   0  0  0  0  0  2           0  0  0
   -2.9992    4.6004    3.6477 N   0  0  0  0  0  3           0  0  0
   -2.6321    2.3217    3.2786 N   0  0  1  0  0  3           0  0  0
   -1.9407   -0.0000    1.6688 N   0  0  1  0  0  3           0  0  0
   -3.2918    5.9810    5.6877 C   0  0  0  0  0  4           0  0  0
   -3.7938    3.4831    6.4732 C   0  0  0  0  0  4           0  0  0
   -3.4963    5.7318    4.3174 C   0  0  0  0  0  4           0  0  0
   -4.0598    2.9832    5.1891 C   0  0  0  0  0  4           0  0  0
   -3.7153    7.1906    6.2554 C   0  0  0  0  0  4           0  0  0
   -4.5630    3.0378    7.5559 C   0  0  0  0  0  4           0  0  0
   -4.1215    6.7189    3.5417 C   0  0  0  0  0  4           0  0  0
   -5.1131    2.0801    4.9924 C   0  0  0  0  0  4           0  0  0
   -4.3415    8.1554    5.4680 C   0  0  0  0  0  4           0  0  0
   -5.5966    2.1212    7.3572 C   0  0  0  0  0  4           0  0  0
   -4.5476    7.9186    4.1127 C   0  0  0  0  0  4           0  0  0
   -5.8774    1.6511    6.0767 C   0  0  0  0  0  4           0  0  0
    1.9477    0.0000   -1.3229 C   0  0  0  0  0  4           0  0  0
    0.0000    0.0000   -0.0000 C   0  0  0  0  0  4           0  0  0
    3.4691    0.0000   -1.2508 C   0  0  0  0  0  4           0  0  0
   -3.2135    3.3576    4.0066 C   0  0  0  0  0  4           0  0  0
   -0.4938    0.0000    1.4408 C   0  0  0  0  0  4           0  0  0
   -2.3620    2.4741    1.8424 C   0  0  0  0  0  4           0  0  0
   -1.9889    1.1582    3.9018 C   0  0  0  0  0  4           0  0  0
   -2.6297    1.1651    1.0965 C   0  0  0  0  0  4           0  0  0
   -2.2709   -0.1125    3.0958 C   0  0  0  0  0  4           0  0  0
  1  7  1  0     0  0
  1  8  1  0     0  0
  2 19  1  0     0  0
  2 20  1  0     0  0
  3 21  1  0     0  0
  4  9  1  0     0  0
  4 22  2  0     0  0
  5 22  1  0     0  0
  5 24  1  0     0  0
  5 25  1  0     0  0
  6 23  1  0     0  0
  6 26  1  0     0  0
  6 27  1  0     0  0
  7  9  1  0     0  0
  7 11  2  0     0  0
  8 10  1  0     0  0
  8 12  2  0     0  0
  9 13  2  0     0  0
 10 14  2  0     0  0
 10 22  1  0     0  0
 11 15  1  0     0  0
 12 16  1  0     0  0
 13 17  1  0     0  0
 14 18  1  0     0  0
 15 17  2  0     0  0
 16 18  2  0     0  0
 19 21  1  0     0  0
 20 23  1  0     0  0
 24 26  1  0     0  0
 25 27  1  0     0  0
M  END
> <standard_type>
pIC50

> <# Confs.>
25

> <canonical_smiles>
OCCOCCN(CC1)CCN1C2=Nc3ccccc3Sc4ccccc24

> <standard_relation>
=

> <Publication_ID>
nan

> <predicted_activity_value>
nan

> <actual_activity_value>
-0.7611758131557315

> <Compound>
Quetiapine

> <standard_units>
uM

> hash
17114518283326109593

$$$$
45
XXILIB    08252103503D 0   0.00000     0.00000

 27 30  0     1  0            999 V2000
   -6.9805   -1.5566   -2.3448 S   0  0  0  0  0  2           0  0  0
    1.4232    0.0000   -0.0000 O   0  0  0  0  0  2           0  0  0
    3.9192    1.1594   -0.5594 O   0  0  0  0  0  2           0  0  0
   -6.3573    0.8831   -0.4682 N   0  0  0  0  0  3           0  0  0
   -4.7037   -0.0611    0.8906 N   0  0  1  0  0  3           0  0  0
   -1.9407   -0.0000    1.6688 N   0  0  1  0  0  3           0  0  0
   -7.9355   -0.0553   -2.1358 C   0  0  0  0  0  4           0  0  0
   -7.1724   -2.1421   -0.6671 C   0  0  0  0  0  4           0  0  0
   -7.5671    0.9146   -1.1841 C   0  0  0  0  0  4           0  0  0
   -6.7418   -1.3852    0.4338 C   0  0  0  0  0  4           0  0  0
   -9.1039    0.1070   -2.8928 C   0  0  0  0  0  4           0  0  0
   -7.8437   -3.3511   -0.4471 C   0  0  0  0  0  4           0  0  0
   -8.3889    2.0388   -1.0184 C   0  0  0  0  0  4           0  0  0
   -7.0231   -1.8167    1.7368 C   0  0  0  0  0  4           0  0  0
   -9.9107    1.2285   -2.7071 C   0  0  0  0  0  4           0  0  0
   -8.1020   -3.7874    0.8533 C   0  0  0  0  0  4           0  0  0
   -9.5563    2.1915   -1.7671 C   0  0  0  0  0  4           0  0  0
   -7.7023   -3.0164    1.9426 C   0  0  0  0  0  4           0  0  0
    1.9477    0.0000   -1.3229 C   0  0  0  0  0  4           0  0  0
    0.0000    0.0000   -0.0000 C   0  0  0  0  0  4           0  0  0
    3.4691    0.0000   -1.2508 C   0  0  0  0  0  4           0  0  0
   -5.9418   -0.1275    0.2570 C   0  0  0  0  0  4           0  0  0
   -0.4938    0.0000    1.4408 C   0  0  0  0  0  4           0  0  0
   -4.0910    1.1877    1.3559 C   0  0  0  0  0  4           0  0  0
   -4.0424   -1.2728    1.3881 C   0  0  0  0  0  4           0  0  0
   -2.5855    1.1836    1.0787 C   0  0  0  0  0  4           0  0  0
   -2.5409   -1.2201    1.1077 C   0  0  0  0  0  4           0  0  0
  1  7  1  0     0  0
  1  8  1  0     0  0
  2 19  1  0     0  0
  2 20  1  0     0  0
  3 21  1  0     0  0
  4  9  1  0     0  0
  4 22  2  0     0  0
  5 22  1  0     0  0
  5 24  1  0     0  0
  5 25  1  0     0  0
  6 23  1  0     0  0
  6 26  1  0     0  0
  6 27  1  0     0  0
  7  9  1  0     0  0
  7 11  2  0     0  0
  8 10  1  0     0  0
  8 12  2  0     0  0
  9 13  2  0     0  0
 10 14  2  0     0  0
 10 22  1  0     0  0
 11 15  1  0     0  0
 12 16  1  0     0  0
 13 17  1  0     0  0
 14 18  1  0     0  0
 15 17  2  0     0  0
 16 18  2  0     0  0
 19 21  1  0     0  0
 20 23  1  0     0  0
 24 26  1  0     0  0
 25 27  1  0     0  0
M  END
> <standard_type>
pIC50

> <# Confs.>
25

> <canonical_smiles>
OCCOCCN(CC1)CCN1C2=Nc3ccccc3Sc4ccccc24

> <standard_relation>
=

> <Publication_ID>
nan

> <predicted_activity_value>
nan

> <actual_activity_value>
-0.7611758131557315

> <Compound>
Quetiapine

> <standard_units>
uM

> hash
17114518283326109593

$$$$
45
XXILIB    08252103503D 0   0.00000     0.00000

 27 30  0     1  0            999 V2000
   -0.1467   -5.9614    7.3050 S   0  0  0  0  0  2           0  0  0
    1.4232    0.0000   -0.0000 O   0  0  0  0  0  2           0  0  0
    3.9192    1.1594   -0.5594 O   0  0  0  0  0  2           0  0  0
   -0.8002   -5.7387    4.2413 N   0  0  0  0  0  3           0  0  0
   -0.5614   -3.4312    3.9413 N   0  0  1  0  0  3           0  0  0
   -0.1034   -1.1213    2.2985 N   0  0  1  0  0  3           0  0  0
   -0.8946   -7.1973    6.2453 C   0  0  0  0  0  4           0  0  0
   -1.4572   -4.7561    7.1497 C   0  0  0  0  0  4           0  0  0
   -1.2045   -6.9124    4.9018 C   0  0  0  0  0  4           0  0  0
   -1.8356   -4.2318    5.9038 C   0  0  0  0  0  4           0  0  0
   -1.2325   -8.4398    6.7992 C   0  0  0  0  0  4           0  0  0
   -2.1759   -4.3897    8.2942 C   0  0  0  0  0  4           0  0  0
   -1.8492   -7.8962    4.1383 C   0  0  0  0  0  4           0  0  0
   -2.9491   -3.3871    5.8054 C   0  0  0  0  0  4           0  0  0
   -1.8798   -9.4010    6.0247 C   0  0  0  0  0  4           0  0  0
   -3.2710   -3.5302    8.1937 C   0  0  0  0  0  4           0  0  0
   -2.1925   -9.1280    4.6965 C   0  0  0  0  0  4           0  0  0
   -3.6634   -3.0389    6.9505 C   0  0  0  0  0  4           0  0  0
    1.9477    0.0000   -1.3229 C   0  0  0  0  0  4           0  0  0
   -0.0000    0.0000    0.0000 C   0  0  0  0  0  4           0  0  0
    3.4691    0.0000   -1.2508 C   0  0  0  0  0  4           0  0  0
   -1.0483   -4.5205    4.6589 C   0  0  0  0  0  4           0  0  0
   -0.4938    0.0000    1.4408 C   0  0  0  0  0  4           0  0  0
   -0.2062   -2.1452    4.5510 C   0  0  0  0  0  4           0  0  0
   -0.1057   -3.5811    2.5546 C   0  0  0  0  0  4           0  0  0
   -0.6520   -0.9853    3.6570 C   0  0  0  0  0  4           0  0  0
   -0.5559   -2.3906    1.7086 C   0  0  0  0  0  4           0  0  0
  1  7  1  0     0  0
  1  8  1  0     0  0
  2 19  1  0     0  0
  2 20  1  0     0  0
  3 21  1  0     0  0
  4  9  1  0     0  0
  4 22  2  0     0  0
  5 22  1  0     0  0
  5 24  1  0     0  0
  5 25  1  0     0  0
  6 23  1  0     0  0
  6 26  1  0     0  0
  6 27  1  0     0  0
  7  9  1  0     0  0
  7 11  2  0     0  0
  8 10  1  0     0  0
  8 12  2  0     0  0
  9 13  2  0     0  0
 10 14  2  0     0  0
 10 22  1  0     0  0
 11 15  1  0     0  0
 12 16  1  0     0  0
 13 17  1  0     0  0
 14 18  1  0     0  0
 15 17  2  0     0  0
 16 18  2  0     0  0
 19 21  1  0     0  0
 20 23  1  0     0  0
 24 26  1  0     0  0
 25 27  1  0     0  0
M  END
> <standard_type>
pIC50

> <# Confs.>
25

> <canonical_smiles>
OCCOCCN(CC1)CCN1C2=Nc3ccccc3Sc4ccccc24

> <standard_relation>
=

> <Publication_ID>
nan

> <predicted_activity_value>
nan

> <actual_activity_value>
-0.7611758131557315

> <Compound>
Quetiapine

> <standard_units>
uM

> hash
17114518283326109593

$$$$
45
XXILIB    08252103503D 0   0.00000     0.00000

 27 30  0     1  0            999 V2000
   -8.5019   -1.9223    0.6240 S   0  0  0  0  0  2           0  0  0
    1.4232    0.0000   -0.0000 O   0  0  0  0  0  2           0  0  0
    3.9192    1.1594   -0.5594 O   0  0  0  0  0  2           0  0  0
   -6.8642    0.7589    0.5446 N   0  0  0  0  0  3           0  0  0
   -4.7037   -0.0611    0.8906 N   0  0  1  0  0  3           0  0  0
   -1.9407   -0.0000    1.6688 N   0  0  1  0  0  3           0  0  0
   -9.0464   -0.3141    0.0546 C   0  0  0  0  0  4           0  0  0
   -7.2210   -2.1431   -0.6017 C   0  0  0  0  0  4           0  0  0
   -8.1615    0.7794    0.0037 C   0  0  0  0  0  4           0  0  0
   -6.1559   -1.2383   -0.7304 C   0  0  0  0  0  4           0  0  0
  -10.3654   -0.1756   -0.3993 C   0  0  0  0  0  4           0  0  0
   -7.3275   -3.2103   -1.5027 C   0  0  0  0  0  4           0  0  0
   -8.6318    2.0006   -0.5008 C   0  0  0  0  0  4           0  0  0
   -5.2360   -1.3824   -1.7775 C   0  0  0  0  0  4           0  0  0
  -10.8104    1.0451   -0.9039 C   0  0  0  0  0  4           0  0  0
   -6.3954   -3.3614   -2.5306 C   0  0  0  0  0  4           0  0  0
   -9.9435    2.1318   -0.9579 C   0  0  0  0  0  4           0  0  0
   -5.3577   -2.4436   -2.6735 C   0  0  0  0  0  4           0  0  0
    1.9477    0.0000   -1.3229 C   0  0  0  0  0  4           0  0  0
    0.0000    0.0000   -0.0000 C   0  0  0  0  0  4           0  0  0
    3.4691    0.0000   -1.2508 C   0  0  0  0  0  4           0  0  0
   -5.9418   -0.1275    0.2570 C   0  0  0  0  0  4           0  0  0
   -0.4938    0.0000    1.4408 C   0  0  0  0  0  4           0  0  0
   -4.0910    1.1877    1.3559 C   0  0  0  0  0  4           0  0  0
   -4.0424   -1.2728    1.3881 C   0  0  0  0  0  4           0  0  0
   -2.5855    1.1836    1.0787 C   0  0  0  0  0  4           0  0  0
   -2.5409   -1.2201    1.1077 C   0  0  0  0  0  4           0  0  0
  1  7  1  0     0  0
  1  8  1  0     0  0
  2 19  1  0     0  0
  2 20  1  0     0  0
  3 21  1  0     0  0
  4  9  1  0     0  0
  4 22  2  0     0  0
  5 22  1  0     0  0
  5 24  1  0     0  0
  5 25  1  0     0  0
  6 23  1  0     0  0
  6 26  1  0     0  0
  6 27  1  0     0  0
  7  9  1  0     0  0
  7 11  2  0     0  0
  8 10  1  0     0  0
  8 12  2  0     0  0
  9 13  2  0     0  0
 10 14  2  0     0  0
 10 22  1  0     0  0
 11 15  1  0     0  0
 12 16  1  0     0  0
 13 17  1  0     0  0
 14 18  1  0     0  0
 15 17  2  0     0  0
 16 18  2  0     0  0
 19 21  1  0     0  0
 20 23  1  0     0  0
 24 26  1  0     0  0
 25 27  1  0     0  0
M  END
> <standard_type>
pIC50

> <# Confs.>
25

> <canonical_smiles>
OCCOCCN(CC1)CCN1C2=Nc3ccccc3Sc4ccccc24

> <standard_relation>
=

> <Publication_ID>
nan

> <predicted_activity_value>
nan

> <actual_activity_value>
-0.7611758131557315

> <Compound>
Quetiapine

> <standard_units>
uM

> hash
17114518283326109593

$$$$
45
XXILIB    08252103503D 0   0.00000     0.00000

 27 30  0     1  0            999 V2000
   -3.5651    4.6142    6.7425 S   0  0  0  0  0  2           0  0  0
    1.4232    0.0000   -0.0000 O   0  0  0  0  0  2           0  0  0
    3.9192    1.1594   -0.5594 O   0  0  0  0  0  2           0  0  0
   -1.6986    5.3822    4.3364 N   0  0  0  0  0  3           0  0  0
   -0.5651    3.3578    4.0389 N   0  0  1  0  0  3           0  0  0
   -0.1034    1.1213    2.2985 N   0  0  1  0  0  3           0  0  0
   -3.2042    6.2498    6.1065 C   0  0  0  0  0  4           0  0  0
   -1.8949    4.2324    7.2511 C   0  0  0  0  0  4           0  0  0
   -2.2715    6.4372    5.0685 C   0  0  0  0  0  4           0  0  0
   -0.8276    4.2264    6.3395 C   0  0  0  0  0  4           0  0  0
   -3.8187    7.3550    6.7111 C   0  0  0  0  0  4           0  0  0
   -1.6367    4.0141    8.6100 C   0  0  0  0  0  4           0  0  0
   -1.9801    7.7454    4.6560 C   0  0  0  0  0  4           0  0  0
    0.4854    4.0486    6.7952 C   0  0  0  0  0  4           0  0  0
   -3.5090    8.6474    6.2907 C   0  0  0  0  0  4           0  0  0
   -0.3291    3.8154    9.0559 C   0  0  0  0  0  4           0  0  0
   -2.5868    8.8431    5.2673 C   0  0  0  0  0  4           0  0  0
    0.7306    3.8436    8.1520 C   0  0  0  0  0  4           0  0  0
    1.9477    0.0000   -1.3229 C   0  0  0  0  0  4           0  0  0
   -0.0000    0.0000    0.0000 C   0  0  0  0  0  4           0  0  0
    3.4691    0.0000   -1.2508 C   0  0  0  0  0  4           0  0  0
   -1.0559    4.3674    4.8626 C   0  0  0  0  0  4           0  0  0
   -0.4938   -0.0000    1.4408 C   0  0  0  0  0  4           0  0  0
   -0.1347    3.5720    2.6532 C   0  0  0  0  0  4           0  0  0
   -0.1823    2.0521    4.5884 C   0  0  0  0  0  4           0  0  0
   -0.5808    2.4071    1.7657 C   0  0  0  0  0  4           0  0  0
   -0.6293    0.9249    3.6581 C   0  0  0  0  0  4           0  0  0
  1  7  1  0     0  0
  1  8  1  0     0  0
  2 19  1  0     0  0
  2 20  1  0     0  0
  3 21  1  0     0  0
  4  9  1  0     0  0
  4 22  2  0     0  0
  5 22  1  0     0  0
  5 24  1  0     0  0
  5 25  1  0     0  0
  6 23  1  0     0  0
  6 26  1  0     0  0
  6 27  1  0     0  0
  7  9  1  0     0  0
  7 11  2  0     0  0
  8 10  1  0     0  0
  8 12  2  0     0  0
  9 13  2  0     0  0
 10 14  2  0     0  0
 10 22  1  0     0  0
 11 15  1  0     0  0
 12 16  1  0     0  0
 13 17  1  0     0  0
 14 18  1  0     0  0
 15 17  2  0     0  0
 16 18  2  0     0  0
 19 21  1  0     0  0
 20 23  1  0     0  0
 24 26  1  0     0  0
 25 27  1  0     0  0
M  END
> <standard_type>
pIC50

> <# Confs.>
25

> <canonical_smiles>
OCCOCCN(CC1)CCN1C2=Nc3ccccc3Sc4ccccc24

> <standard_relation>
=

> <Publication_ID>
nan

> <predicted_activity_value>
nan

> <actual_activity_value>
-0.7611758131557315

> <Compound>
Quetiapine

> <standard_units>
uM

> hash
17114518283326109593

$$$$
45
XXILIB    08252103503D 0   0.00000     0.00000

 27 30  0     1  0            999 V2000
   -0.4554    5.2773    7.8157 S   0  0  0  0  0  2           0  0  0
    1.4232    0.0000   -0.0000 O   0  0  0  0  0  2           0  0  0
    3.9192    1.1594   -0.5594 O   0  0  0  0  0  2           0  0  0
   -0.6391    5.5992    4.6950 N   0  0  0  0  0  3           0  0  0
   -0.5651    3.3578    4.0389 N   0  0  1  0  0  3           0  0  0
   -0.1034    1.1213    2.2985 N   0  0  1  0  0  3           0  0  0
   -0.9107    6.7365    6.8827 C   0  0  0  0  0  4           0  0  0
   -1.8244    4.2632    7.2782 C   0  0  0  0  0  4           0  0  0
   -1.0287    6.6978    5.4805 C   0  0  0  0  0  4           0  0  0
   -2.0457    3.9769    5.9222 C   0  0  0  0  0  4           0  0  0
   -1.2079    7.9137    7.5832 C   0  0  0  0  0  4           0  0  0
   -2.7393    3.8044    8.2345 C   0  0  0  0  0  4           0  0  0
   -1.4396    7.8586    4.8093 C   0  0  0  0  0  4           0  0  0
   -3.1942    3.2754    5.5318 C   0  0  0  0  0  4           0  0  0
   -1.6219    9.0542    6.8972 C   0  0  0  0  0  4           0  0  0
   -3.8702    3.0869    7.8416 C   0  0  0  0  0  4           0  0  0
   -1.7410    9.0261    5.5114 C   0  0  0  0  0  4           0  0  0
   -4.1021    2.8317    6.4923 C   0  0  0  0  0  4           0  0  0
    1.9477    0.0000   -1.3229 C   0  0  0  0  0  4           0  0  0
   -0.0000    0.0000    0.0000 C   0  0  0  0  0  4           0  0  0
    3.4691    0.0000   -1.2508 C   0  0  0  0  0  4           0  0  0
   -1.0559    4.3674    4.8626 C   0  0  0  0  0  4           0  0  0
   -0.4938   -0.0000    1.4408 C   0  0  0  0  0  4           0  0  0
   -0.1347    3.5720    2.6532 C   0  0  0  0  0  4           0  0  0
   -0.1823    2.0521    4.5884 C   0  0  0  0  0  4           0  0  0
   -0.5808    2.4071    1.7657 C   0  0  0  0  0  4           0  0  0
   -0.6293    0.9249    3.6581 C   0  0  0  0  0  4           0  0  0
  1  7  1  0     0  0
  1  8  1  0     0  0
  2 19  1  0     0  0
  2 20  1  0     0  0
  3 21  1  0     0  0
  4  9  1  0     0  0
  4 22  2  0     0  0
  5 22  1  0     0  0
  5 24  1  0     0  0
  5 25  1  0     0  0
  6 23  1  0     0  0
  6 26  1  0     0  0
  6 27  1  0     0  0
  7  9  1  0     0  0
  7 11  2  0     0  0
  8 10  1  0     0  0
  8 12  2  0     0  0
  9 13  2  0     0  0
 10 14  2  0     0  0
 10 22  1  0     0  0
 11 15  1  0     0  0
 12 16  1  0     0  0
 13 17  1  0     0  0
 14 18  1  0     0  0
 15 17  2  0     0  0
 16 18  2  0     0  0
 19 21  1  0     0  0
 20 23  1  0     0  0
 24 26  1  0     0  0
 25 27  1  0     0  0
M  END
> <standard_type>
pIC50

> <# Confs.>
25

> <canonical_smiles>
OCCOCCN(CC1)CCN1C2=Nc3ccccc3Sc4ccccc24

> <standard_relation>
=

> <Publication_ID>
nan

> <predicted_activity_value>
nan

> <actual_activity_value>
-0.7611758131557315

> <Compound>
Quetiapine

> <standard_units>
uM

> hash
17114518283326109593

$$$$
45
XXILIB    08252103503D 0   0.00000     0.00000

 27 30  0     1  0            999 V2000
   -3.2920   -4.8893    6.8359 S   0  0  0  0  0  2           0  0  0
    1.4232    0.0000   -0.0000 O   0  0  0  0  0  2           0  0  0
    3.9192    1.1594   -0.5594 O   0  0  0  0  0  2           0  0  0
   -1.8643   -5.3660    4.0771 N   0  0  0  0  0  3           0  0  0
   -0.5614   -3.4312    3.9413 N   0  0  1  0  0  3           0  0  0
   -0.1034   -1.1213    2.2985 N   0  0  1  0  0  3           0  0  0
   -3.2061   -6.4052    5.8862 C   0  0  0  0  0  4           0  0  0
   -1.5371   -4.7451    7.1381 C   0  0  0  0  0  4           0  0  0
   -2.4517   -6.4807    4.7002 C   0  0  0  0  0  4           0  0  0
   -0.6098   -4.6604    6.0881 C   0  0  0  0  0  4           0  0  0
   -3.8606   -7.5424    6.3793 C   0  0  0  0  0  4           0  0  0
   -1.0751   -4.7914    8.4597 C   0  0  0  0  0  4           0  0  0
   -2.3795   -7.7093    4.0277 C   0  0  0  0  0  4           0  0  0
    0.7641   -4.6652    6.3638 C   0  0  0  0  0  4           0  0  0
   -3.7698   -8.7557    5.6993 C   0  0  0  0  0  4           0  0  0
    0.2943   -4.7735    8.7292 C   0  0  0  0  0  4           0  0  0
   -3.0271   -8.8404    4.5260 C   0  0  0  0  0  4           0  0  0
    1.2120   -4.7206    7.6829 C   0  0  0  0  0  4           0  0  0
    1.9477    0.0000   -1.3229 C   0  0  0  0  0  4           0  0  0
   -0.0000    0.0000    0.0000 C   0  0  0  0  0  4           0  0  0
    3.4691    0.0000   -1.2508 C   0  0  0  0  0  4           0  0  0
   -1.0483   -4.5205    4.6589 C   0  0  0  0  0  4           0  0  0
   -0.4938    0.0000    1.4408 C   0  0  0  0  0  4           0  0  0
   -0.2062   -2.1452    4.5510 C   0  0  0  0  0  4           0  0  0
   -0.1057   -3.5811    2.5546 C   0  0  0  0  0  4           0  0  0
   -0.6520   -0.9853    3.6570 C   0  0  0  0  0  4           0  0  0
   -0.5559   -2.3906    1.7086 C   0  0  0  0  0  4           0  0  0
  1  7  1  0     0  0
  1  8  1  0     0  0
  2 19  1  0     0  0
  2 20  1  0     0  0
  3 21  1  0     0  0
  4  9  1  0     0  0
  4 22  2  0     0  0
  5 22  1  0     0  0
  5 24  1  0     0  0
  5 25  1  0     0  0
  6 23  1  0     0  0
  6 26  1  0     0  0
  6 27  1  0     0  0
  7  9  1  0     0  0
  7 11  2  0     0  0
  8 10  1  0     0  0
  8 12  2  0     0  0
  9 13  2  0     0  0
 10 14  2  0     0  0
 10 22  1  0     0  0
 11 15  1  0     0  0
 12 16  1  0     0  0
 13 17  1  0     0  0
 14 18  1  0     0  0
 15 17  2  0     0  0
 16 18  2  0     0  0
 19 21  1  0     0  0
 20 23  1  0     0  0
 24 26  1  0     0  0
 25 27  1  0     0  0
M  END
> <standard_type>
pIC50

> <# Confs.>
25

> <canonical_smiles>
OCCOCCN(CC1)CCN1C2=Nc3ccccc3Sc4ccccc24

> <standard_relation>
=

> <Publication_ID>
nan

> <predicted_activity_value>
nan

> <actual_activity_value>
-0.7611758131557315

> <Compound>
Quetiapine

> <standard_units>
uM

> hash
17114518283326109593

$$$$
45
XXILIB    08252103503D 0   0.00000     0.00000

 27 30  0     1  0            999 V2000
   -5.5995    3.5087    6.0499 S   0  0  0  0  0  2           0  0  0
    1.4232    0.0000   -0.0000 O   0  0  0  0  0  2           0  0  0
    3.9192    1.1594   -0.5594 O   0  0  0  0  0  2           0  0  0
   -4.0356    4.1892    3.4129 N   0  0  0  0  0  3           0  0  0
   -2.6321    2.3217    3.2786 N   0  0  1  0  0  3           0  0  0
   -1.9407   -0.0000    1.6688 N   0  0  1  0  0  3           0  0  0
   -5.5325    5.0743    5.1816 C   0  0  0  0  0  4           0  0  0
   -3.8605    3.4393    6.4564 C   0  0  0  0  0  4           0  0  0
   -4.7105    5.2447    4.0513 C   0  0  0  0  0  4           0  0  0
   -2.8680    3.4566    5.4640 C   0  0  0  0  0  4           0  0  0
   -6.2646    6.1555    5.6912 C   0  0  0  0  0  4           0  0  0
   -3.4818    3.4503    7.8045 C   0  0  0  0  0  4           0  0  0
   -4.6478    6.5108    3.4516 C   0  0  0  0  0  4           0  0  0
   -1.5157    3.5298    5.8233 C   0  0  0  0  0  4           0  0  0
   -6.1821    7.4076    5.0842 C   0  0  0  0  0  4           0  0  0
   -2.1324    3.5008    8.1572 C   0  0  0  0  0  4           0  0  0
   -5.3706    7.5867    3.9681 C   0  0  0  0  0  4           0  0  0
   -1.1520    3.5517    7.1687 C   0  0  0  0  0  4           0  0  0
    1.9477    0.0000   -1.3229 C   0  0  0  0  0  4           0  0  0
    0.0000    0.0000   -0.0000 C   0  0  0  0  0  4           0  0  0
    3.4691    0.0000   -1.2508 C   0  0  0  0  0  4           0  0  0
   -3.2135    3.3576    4.0066 C   0  0  0  0  0  4           0  0  0
   -0.4938    0.0000    1.4408 C   0  0  0  0  0  4           0  0  0
   -2.3620    2.4741    1.8424 C   0  0  0  0  0  4           0  0  0
   -1.9889    1.1582    3.9018 C   0  0  0  0  0  4           0  0  0
   -2.6297    1.1651    1.0965 C   0  0  0  0  0  4           0  0  0
   -2.2709   -0.1125    3.0958 C   0  0  0  0  0  4           0  0  0
  1  7  1  0     0  0
  1  8  1  0     0  0
  2 19  1  0     0  0
  2 20  1  0     0  0
  3 21  1  0     0  0
  4  9  1  0     0  0
  4 22  2  0     0  0
  5 22  1  0     0  0
  5 24  1  0     0  0
  5 25  1  0     0  0
  6 23  1  0     0  0
  6 26  1  0     0  0
  6 27  1  0     0  0
  7  9  1  0     0  0
  7 11  2  0     0  0
  8 10  1  0     0  0
  8 12  2  0     0  0
  9 13  2  0     0  0
 10 14  2  0     0  0
 10 22  1  0     0  0
 11 15  1  0     0  0
 12 16  1  0     0  0
 13 17  1  0     0  0
 14 18  1  0     0  0
 15 17  2  0     0  0
 16 18  2  0     0  0
 19 21  1  0     0  0
 20 23  1  0     0  0
 24 26  1  0     0  0
 25 27  1  0     0  0
M  END
> <standard_type>
pIC50

> <# Confs.>
25

> <canonical_smiles>
OCCOCCN(CC1)CCN1C2=Nc3ccccc3Sc4ccccc24

> <standard_relation>
=

> <Publication_ID>
nan

> <predicted_activity_value>
nan

> <actual_activity_value>
-0.7611758131557315

> <Compound>
Quetiapine

> <standard_units>
uM

> hash
17114518283326109593

$$$$
45
XXILIB    08252103503D 0   0.00000     0.00000

 27 30  0     1  0            999 V2000
   -3.0718   -6.6407    3.5114 S   0  0  0  0  0  2           0  0  0
    1.4232    0.0000   -0.0000 O   0  0  0  0  0  2           0  0  0
    3.9192    1.1594   -0.5594 O   0  0  0  0  0  2           0  0  0
   -2.7970   -3.8504    4.9310 N   0  0  0  0  0  3           0  0  0
   -2.6653   -2.4447    3.0681 N   0  0  1  0  0  3           0  0  0
   -1.9407   -0.0000    1.6688 N   0  0  1  0  0  3           0  0  0
   -3.3634   -6.2464    5.2337 C   0  0  0  0  0  4           0  0  0
   -4.3650   -5.6017    2.8485 C   0  0  0  0  0  4           0  0  0
   -3.2779   -4.9220    5.7030 C   0  0  0  0  0  4           0  0  0
   -4.3926   -4.2173    3.0775 C   0  0  0  0  0  4           0  0  0
   -3.7394   -7.2797    6.1030 C   0  0  0  0  0  4           0  0  0
   -5.4160   -6.2016    2.1429 C   0  0  0  0  0  4           0  0  0
   -3.5684   -4.6676    7.0513 C   0  0  0  0  0  4           0  0  0
   -5.4840   -3.4555    2.6391 C   0  0  0  0  0  4           0  0  0
   -4.0310   -7.0040    7.4378 C   0  0  0  0  0  4           0  0  0
   -6.4899   -5.4340    1.6894 C   0  0  0  0  0  4           0  0  0
   -3.9490   -5.6985    7.9112 C   0  0  0  0  0  4           0  0  0
   -6.5284   -4.0656    1.9457 C   0  0  0  0  0  4           0  0  0
    1.9477    0.0000   -1.3229 C   0  0  0  0  0  4           0  0  0
    0.0000    0.0000    0.0000 C   0  0  0  0  0  4           0  0  0
    3.4691    0.0000   -1.2508 C   0  0  0  0  0  4           0  0  0
   -3.2538   -3.5071    3.7509 C   0  0  0  0  0  4           0  0  0
   -0.4938    0.0000    1.4408 C   0  0  0  0  0  4           0  0  0
   -2.0531   -1.3287    3.8021 C   0  0  0  0  0  4           0  0  0
   -2.3461   -2.4828    1.6355 C   0  0  0  0  0  4           0  0  0
   -2.3156    0.0000    3.0899 C   0  0  0  0  0  4           0  0  0
   -2.6033   -1.1199    0.9872 C   0  0  0  0  0  4           0  0  0
  1  7  1  0     0  0
  1  8  1  0     0  0
  2 19  1  0     0  0
  2 20  1  0     0  0
  3 21  1  0     0  0
  4  9  1  0     0  0
  4 22  2  0     0  0
  5 22  1  0     0  0
  5 24  1  0     0  0
  5 25  1  0     0  0
  6 23  1  0     0  0
  6 26  1  0     0  0
  6 27  1  0     0  0
  7  9  1  0     0  0
  7 11  2  0     0  0
  8 10  1  0     0  0
  8 12  2  0     0  0
  9 13  2  0     0  0
 10 14  2  0     0  0
 10 22  1  0     0  0
 11 15  1  0     0  0
 12 16  1  0     0  0
 13 17  1  0     0  0
 14 18  1  0     0  0
 15 17  2  0     0  0
 16 18  2  0     0  0
 19 21  1  0     0  0
 20 23  1  0     0  0
 24 26  1  0     0  0
 25 27  1  0     0  0
M  END
> <standard_type>
pIC50

> <# Confs.>
25

> <canonical_smiles>
OCCOCCN(CC1)CCN1C2=Nc3ccccc3Sc4ccccc24

> <standard_relation>
=

> <Publication_ID>
nan

> <predicted_activity_value>
nan

> <actual_activity_value>
-0.7611758131557315

> <Compound>
Quetiapine

> <standard_units>
uM

> hash
17114518283326109593

$$$$
45
XXILIB    08252103503D 0   0.00000     0.00000

 27 30  0     1  0            999 V2000
   -2.6435    6.4419    4.2370 S   0  0  0  0  0  2           0  0  0
    1.4232    0.0000   -0.0000 O   0  0  0  0  0  2           0  0  0
    3.9192    1.1594   -0.5594 O   0  0  0  0  0  2           0  0  0
   -2.9349    3.4943    5.2808 N   0  0  0  0  0  3           0  0  0
   -2.6321    2.3217    3.2786 N   0  0  1  0  0  3           0  0  0
   -1.9407   -0.0000    1.6688 N   0  0  1  0  0  3           0  0  0
   -3.2800    5.8910    5.8185 C   0  0  0  0  0  4           0  0  0
   -3.9110    5.6712    3.2402 C   0  0  0  0  0  4           0  0  0
   -3.4285    4.5207    6.1055 C   0  0  0  0  0  4           0  0  0
   -4.1357    4.2861    3.2713 C   0  0  0  0  0  4           0  0  0
   -3.6961    6.8555    6.7465 C   0  0  0  0  0  4           0  0  0
   -4.7525    6.4849    2.4716 C   0  0  0  0  0  4           0  0  0
   -3.9935    4.1494    7.3341 C   0  0  0  0  0  4           0  0  0
   -5.2190    3.7337    2.5753 C   0  0  0  0  0  4           0  0  0
   -4.2622    6.4649    7.9590 C   0  0  0  0  0  4           0  0  0
   -5.8171    5.9268    1.7623 C   0  0  0  0  0  4           0  0  0
   -4.4154    5.1130    8.2509 C   0  0  0  0  0  4           0  0  0
   -6.0564    4.5557    1.8230 C   0  0  0  0  0  4           0  0  0
    1.9477    0.0000   -1.3229 C   0  0  0  0  0  4           0  0  0
    0.0000    0.0000   -0.0000 C   0  0  0  0  0  4           0  0  0
    3.4691    0.0000   -1.2508 C   0  0  0  0  0  4           0  0  0
   -3.2135    3.3576    4.0066 C   0  0  0  0  0  4           0  0  0
   -0.4938    0.0000    1.4408 C   0  0  0  0  0  4           0  0  0
   -2.3620    2.4741    1.8424 C   0  0  0  0  0  4           0  0  0
   -1.9889    1.1582    3.9018 C   0  0  0  0  0  4           0  0  0
   -2.6297    1.1651    1.0965 C   0  0  0  0  0  4           0  0  0
   -2.2709   -0.1125    3.0958 C   0  0  0  0  0  4           0  0  0
  1  7  1  0     0  0
  1  8  1  0     0  0
  2 19  1  0     0  0
  2 20  1  0     0  0
  3 21  1  0     0  0
  4  9  1  0     0  0
  4 22  2  0     0  0
  5 22  1  0     0  0
  5 24  1  0     0  0
  5 25  1  0     0  0
  6 23  1  0     0  0
  6 26  1  0     0  0
  6 27  1  0     0  0
  7  9  1  0     0  0
  7 11  2  0     0  0
  8 10  1  0     0  0
  8 12  2  0     0  0
  9 13  2  0     0  0
 10 14  2  0     0  0
 10 22  1  0     0  0
 11 15  1  0     0  0
 12 16  1  0     0  0
 13 17  1  0     0  0
 14 18  1  0     0  0
 15 17  2  0     0  0
 16 18  2  0     0  0
 19 21  1  0     0  0
 20 23  1  0     0  0
 24 26  1  0     0  0
 25 27  1  0     0  0
M  END
> <standard_type>
pIC50

> <# Confs.>
25

> <canonical_smiles>
OCCOCCN(CC1)CCN1C2=Nc3ccccc3Sc4ccccc24

> <standard_relation>
=

> <Publication_ID>
nan

> <predicted_activity_value>
nan

> <actual_activity_value>
-0.7611758131557315

> <Compound>
Quetiapine

> <standard_units>
uM

> hash
17114518283326109593

$$$$
45
XXILIB    08252103503D 0   0.00000     0.00000

 27 30  0     1  0            999 V2000
   -6.9498    0.4858   -2.6615 S   0  0  0  0  0  2           0  0  0
    1.4232    0.0000   -0.0000 O   0  0  0  0  0  2           0  0  0
    3.9192    1.1594   -0.5594 O   0  0  0  0  0  2           0  0  0
   -6.4114   -1.2905   -0.1254 N   0  0  0  0  0  3           0  0  0
   -4.7037   -0.0611    0.8906 N   0  0  1  0  0  3           0  0  0
   -1.9407   -0.0000    1.6688 N   0  0  1  0  0  3           0  0  0
   -7.9637   -0.8370   -2.0064 C   0  0  0  0  0  4           0  0  0
   -7.0911    1.5642   -1.2442 C   0  0  0  0  0  4           0  0  0
   -7.6263   -1.4874   -0.8044 C   0  0  0  0  0  4           0  0  0
   -6.6765    1.1631    0.0352 C   0  0  0  0  0  4           0  0  0
   -9.1416   -1.1774   -2.6858 C   0  0  0  0  0  4           0  0  0
   -7.6995    2.8154   -1.4076 C   0  0  0  0  0  4           0  0  0
   -8.4870   -2.4801   -0.3139 C   0  0  0  0  0  4           0  0  0
   -6.9101    1.9925    1.1403 C   0  0  0  0  0  4           0  0  0
   -9.9869   -2.1619   -2.1770 C   0  0  0  0  0  4           0  0  0
   -7.9096    3.6467   -0.3063 C   0  0  0  0  0  4           0  0  0
   -9.6619   -2.8108   -0.9901 C   0  0  0  0  0  4           0  0  0
   -7.5247    3.2318    0.9663 C   0  0  0  0  0  4           0  0  0
    1.9477    0.0000   -1.3229 C   0  0  0  0  0  4           0  0  0
    0.0000    0.0000   -0.0000 C   0  0  0  0  0  4           0  0  0
    3.4691    0.0000   -1.2508 C   0  0  0  0  0  4           0  0  0
   -5.9418   -0.1275    0.2570 C   0  0  0  0  0  4           0  0  0
   -0.4938    0.0000    1.4408 C   0  0  0  0  0  4           0  0  0
   -4.0910    1.1877    1.3559 C   0  0  0  0  0  4           0  0  0
   -4.0424   -1.2728    1.3881 C   0  0  0  0  0  4           0  0  0
   -2.5855    1.1836    1.0787 C   0  0  0  0  0  4           0  0  0
   -2.5409   -1.2201    1.1077 C   0  0  0  0  0  4           0  0  0
  1  7  1  0     0  0
  1  8  1  0     0  0
  2 19  1  0     0  0
  2 20  1  0     0  0
  3 21  1  0     0  0
  4  9  1  0     0  0
  4 22  2  0     0  0
  5 22  1  0     0  0
  5 24  1  0     0  0
  5 25  1  0     0  0
  6 23  1  0     0  0
  6 26  1  0     0  0
  6 27  1  0     0  0
  7  9  1  0     0  0
  7 11  2  0     0  0
  8 10  1  0     0  0
  8 12  2  0     0  0
  9 13  2  0     0  0
 10 14  2  0     0  0
 10 22  1  0     0  0
 11 15  1  0     0  0
 12 16  1  0     0  0
 13 17  1  0     0  0
 14 18  1  0     0  0
 15 17  2  0     0  0
 16 18  2  0     0  0
 19 21  1  0     0  0
 20 23  1  0     0  0
 24 26  1  0     0  0
 25 27  1  0     0  0
M  END
> <standard_type>
pIC50

> <# Confs.>
25

> <canonical_smiles>
OCCOCCN(CC1)CCN1C2=Nc3ccccc3Sc4ccccc24

> <standard_relation>
=

> <Publication_ID>
nan

> <predicted_activity_value>
nan

> <actual_activity_value>
-0.7611758131557315

> <Compound>
Quetiapine

> <standard_units>
uM

> hash
17114518283326109593

$$$$
45
XXILIB    08252103503D 0   0.00000     0.00000

 27 30  0     1  0            999 V2000
   -6.3557    5.0938    3.3402 S   0  0  0  0  0  2           0  0  0
    1.4232    0.0000   -0.0000 O   0  0  0  0  0  2           0  0  0
    3.9192    1.1594   -0.5594 O   0  0  0  0  0  2           0  0  0
   -4.5665    3.0213    4.8785 N   0  0  0  0  0  3           0  0  0
   -3.9266    1.6404    3.1030 N   0  0  1  0  0  3           0  0  0
   -1.9407   -0.0000    1.6688 N   0  0  1  0  0  3           0  0  0
   -6.2418    4.8358    5.1094 C   0  0  0  0  0  4           0  0  0
   -7.0026    3.4739    2.9507 C   0  0  0  0  0  4           0  0  0
   -5.4519    3.8003    5.6442 C   0  0  0  0  0  4           0  0  0
   -6.3030    2.3009    3.2745 C   0  0  0  0  0  4           0  0  0
   -7.0127    5.6444    5.9559 C   0  0  0  0  0  4           0  0  0
   -8.2780    3.3758    2.3809 C   0  0  0  0  0  4           0  0  0
   -5.4527    3.6040    7.0328 C   0  0  0  0  0  4           0  0  0
   -6.8971    1.0486    3.0698 C   0  0  0  0  0  4           0  0  0
   -7.0047    5.4275    7.3329 C   0  0  0  0  0  4           0  0  0
   -8.8564    2.1253    2.1586 C   0  0  0  0  0  4           0  0  0
   -6.2292    4.4050    7.8708 C   0  0  0  0  0  4           0  0  0
   -8.1720    0.9646    2.5125 C   0  0  0  0  0  4           0  0  0
    1.9477    0.0000   -1.3229 C   0  0  0  0  0  4           0  0  0
    0.0000    0.0000   -0.0000 C   0  0  0  0  0  4           0  0  0
    3.4691    0.0000   -1.2508 C   0  0  0  0  0  4           0  0  0
   -4.8995    2.3453    3.8052 C   0  0  0  0  0  4           0  0  0
   -0.4938    0.0000    1.4408 C   0  0  0  0  0  4           0  0  0
   -3.9943    1.4067    1.6557 C   0  0  0  0  0  4           0  0  0
   -2.7495    1.0921    3.7877 C   0  0  0  0  0  4           0  0  0
   -2.5938    1.1790    1.0826 C   0  0  0  0  0  4           0  0  0
   -2.2692   -0.1819    3.0901 C   0  0  0  0  0  4           0  0  0
  1  7  1  0     0  0
  1  8  1  0     0  0
  2 19  1  0     0  0
  2 20  1  0     0  0
  3 21  1  0     0  0
  4  9  1  0     0  0
  4 22  2  0     0  0
  5 22  1  0     0  0
  5 24  1  0     0  0
  5 25  1  0     0  0
  6 23  1  0     0  0
  6 26  1  0     0  0
  6 27  1  0     0  0
  7  9  1  0     0  0
  7 11  2  0     0  0
  8 10  1  0     0  0
  8 12  2  0     0  0
  9 13  2  0     0  0
 10 14  2  0     0  0
 10 22  1  0     0  0
 11 15  1  0     0  0
 12 16  1  0     0  0
 13 17  1  0     0  0
 14 18  1  0     0  0
 15 17  2  0     0  0
 16 18  2  0     0  0
 19 21  1  0     0  0
 20 23  1  0     0  0
 24 26  1  0     0  0
 25 27  1  0     0  0
M  END
> <standard_type>
pIC50

> <# Confs.>
25

> <canonical_smiles>
OCCOCCN(CC1)CCN1C2=Nc3ccccc3Sc4ccccc24

> <standard_relation>
=

> <Publication_ID>
nan

> <predicted_activity_value>
nan

> <actual_activity_value>
-0.7611758131557315

> <Compound>
Quetiapine

> <standard_units>
uM

> hash
17114518283326109593

$$$$
45
XXILIB    08252103503D 0   0.00000     0.00000

 27 30  0     1  0            999 V2000
   -0.3398   -7.5866    4.7441 S   0  0  0  0  0  2           0  0  0
    1.4232    0.0000   -0.0000 O   0  0  0  0  0  2           0  0  0
    3.9192    1.1594   -0.5594 O   0  0  0  0  0  2           0  0  0
   -0.6848   -4.6876    5.9075 N   0  0  0  0  0  3           0  0  0
   -0.5614   -3.4312    3.9413 N   0  0  1  0  0  3           0  0  0
   -0.1034   -1.1213    2.2985 N   0  0  1  0  0  3           0  0  0
   -0.8918   -7.1138    6.3808 C   0  0  0  0  0  4           0  0  0
   -1.6954   -6.8377    3.8537 C   0  0  0  0  0  4           0  0  0
   -1.0756   -5.7615    6.7259 C   0  0  0  0  0  4           0  0  0
   -1.9711   -5.4645    3.9434 C   0  0  0  0  0  4           0  0  0
   -1.1974   -8.1246    7.3026 C   0  0  0  0  0  4           0  0  0
   -2.5461   -7.6609    3.1048 C   0  0  0  0  0  4           0  0  0
   -1.5600   -5.4553    8.0059 C   0  0  0  0  0  4           0  0  0
   -3.1110   -4.9361    3.3229 C   0  0  0  0  0  4           0  0  0
   -1.6848   -7.7988    8.5671 C   0  0  0  0  0  4           0  0  0
   -3.6679   -7.1249    2.4705 C   0  0  0  0  0  4           0  0  0
   -1.8693   -6.4652    8.9178 C   0  0  0  0  0  4           0  0  0
   -3.9551   -5.7672    2.5877 C   0  0  0  0  0  4           0  0  0
    1.9477    0.0000   -1.3229 C   0  0  0  0  0  4           0  0  0
   -0.0000    0.0000    0.0000 C   0  0  0  0  0  4           0  0  0
    3.4691    0.0000   -1.2508 C   0  0  0  0  0  4           0  0  0
   -1.0483   -4.5205    4.6589 C   0  0  0  0  0  4           0  0  0
   -0.4938    0.0000    1.4408 C   0  0  0  0  0  4           0  0  0
   -0.2062   -2.1452    4.5510 C   0  0  0  0  0  4           0  0  0
   -0.1057   -3.5811    2.5546 C   0  0  0  0  0  4           0  0  0
   -0.6520   -0.9853    3.6570 C   0  0  0  0  0  4           0  0  0
   -0.5559   -2.3906    1.7086 C   0  0  0  0  0  4           0  0  0
  1  7  1  0     0  0
  1  8  1  0     0  0
  2 19  1  0     0  0
  2 20  1  0     0  0
  3 21  1  0     0  0
  4  9  1  0     0  0
  4 22  2  0     0  0
  5 22  1  0     0  0
  5 24  1  0     0  0
  5 25  1  0     0  0
  6 23  1  0     0  0
  6 26  1  0     0  0
  6 27  1  0     0  0
  7  9  1  0     0  0
  7 11  2  0     0  0
  8 10  1  0     0  0
  8 12  2  0     0  0
  9 13  2  0     0  0
 10 14  2  0     0  0
 10 22  1  0     0  0
 11 15  1  0     0  0
 12 16  1  0     0  0
 13 17  1  0     0  0
 14 18  1  0     0  0
 15 17  2  0     0  0
 16 18  2  0     0  0
 19 21  1  0     0  0
 20 23  1  0     0  0
 24 26  1  0     0  0
 25 27  1  0     0  0
M  END
> <standard_type>
pIC50

> <# Confs.>
25

> <canonical_smiles>
OCCOCCN(CC1)CCN1C2=Nc3ccccc3Sc4ccccc24

> <standard_relation>
=

> <Publication_ID>
nan

> <predicted_activity_value>
nan

> <actual_activity_value>
-0.7611758131557315

> <Compound>
Quetiapine

> <standard_units>
uM

> hash
17114518283326109593

$$$$
44
XXILIB    08252103503D 0   0.00000     0.00000

 21 22  0     1  0            999 V2000
    3.5698    5.2711   -0.1163 O   0  0  0  0  0  2           0  0  0
   -0.1577   -0.5845    2.3130 N   0  0  0  0  0  3           0  0  0
    0.0000    0.0000    0.0000 N   0  0  1  0  0  3           0  0  0
   -2.2808   -1.3394   -2.7008 N   0  0  2  0  0  3           0  0  0
    3.0693    4.0057    0.0069 C   0  0  0  0  0  4           0  0  0
   -0.6900   -0.0000    1.2053 C   0  0  0  0  0  4           0  0  0
   -0.8790   -0.5469    3.4568 C   0  0  0  0  0  4           0  0  0
    2.0325    1.3871    0.0000 C   0  0  0  0  0  4           0  0  0
    2.8265    3.3422    1.2122 C   0  0  0  0  0  4           0  0  0
    2.7913    3.3555   -1.1993 C   0  0  0  0  0  4           0  0  0
   -1.9424    0.6196    1.2422 C   0  0  0  0  0  4           0  0  0
   -2.1213    0.0482    3.5704 C   0  0  0  0  0  4           0  0  0
    2.3079    2.0434    1.2062 C   0  0  0  0  0  4           0  0  0
    2.2734    2.0586   -1.2038 C   0  0  0  0  0  4           0  0  0
   -2.6576    0.6409    2.4371 C   0  0  0  0  0  4           0  0  0
    3.8555    5.9370    1.1114 C   0  0  0  0  0  4           0  0  0
    1.4504   -0.0000   -0.0000 C   0  0  0  0  0  4           0  0  0
   -0.6995   -0.0313   -1.2815 C   0  0  0  0  0  4           0  0  0
   -1.5660   -1.2818   -1.4217 C   0  0  0  0  0  4           0  0  0
   -3.1740   -0.1910   -2.8724 C   0  0  0  0  0  4           0  0  0
   -3.0467   -2.5840   -2.7951 C   0  0  0  0  0  4           0  0  0
  1  5  1  0     0  0
  1 16  1  0     0  0
  2  6  2  0     0  0
  2  7  1  0     0  0
  3  6  1  0     0  0
  3 17  1  0     0  0
  3 18  1  0     0  0
  4 19  1  0     0  0
  4 20  1  0     0  0
  4 21  1  0     0  0
  5  9  2  0     0  0
  5 10  1  0     0  0
  6 11  1  0     0  0
  7 12  2  0     0  0
  8 13  2  0     0  0
  8 14  1  0     0  0
  8 17  1  0     0  0
  9 13  1  0     0  0
 10 14  2  0     0  0
 11 15  2  0     0  0
 12 15  1  0     0  0
 18 19  1  0     0  0
M  END
> <standard_type>
pIC50

> <# Confs.>
25

> <canonical_smiles>
CN(C)CCN(CC1=CC=C(OC)C=C1)C2=NC=CC=C2

> <standard_relation>
=

> <Publication_ID>
nan

> <predicted_activity_value>
nan

> <actual_activity_value>
-0.04139268515822508

> <Compound>
Pyrilamine

> <standard_units>
uM

> hash
3065239221153267079

$$$$
44
XXILIB    08252103503D 0   0.00000     0.00000

 21 22  0     1  0            999 V2000
    3.7271   -5.2051   -0.1163 O   0  0  0  0  0  2           0  0  0
   -0.1577    0.5845    2.3130 N   0  0  0  0  0  3           0  0  0
    0.0000    0.0000    0.0000 N   0  0  1  0  0  3           0  0  0
   -2.3356    1.1704   -2.7322 N   0  0  2  0  0  3           0  0  0
    3.1748   -3.9615    0.0069 C   0  0  0  0  0  4           0  0  0
   -0.6900    0.0000    1.2053 C   0  0  0  0  0  4           0  0  0
   -0.8822    0.5533    3.4550 C   0  0  0  0  0  4           0  0  0
    2.0325   -1.3871    0.0000 C   0  0  0  0  0  4           0  0  0
    2.8714   -3.3234    1.2122 C   0  0  0  0  0  4           0  0  0
    2.9055   -3.3075   -1.1993 C   0  0  0  0  0  4           0  0  0
   -1.9444   -0.6155    1.2411 C   0  0  0  0  0  4           0  0  0
   -2.1284   -0.0340    3.5663 C   0  0  0  0  0  4           0  0  0
    2.3079   -2.0434    1.2062 C   0  0  0  0  0  4           0  0  0
    2.3429   -2.0294   -1.2038 C   0  0  0  0  0  4           0  0  0
   -2.6639   -0.6283    2.4335 C   0  0  0  0  0  4           0  0  0
    4.0022   -5.8754    1.1114 C   0  0  0  0  0  4           0  0  0
    1.4504    0.0000   -0.0000 C   0  0  0  0  0  4           0  0  0
   -0.6995   -0.0313   -1.2815 C   0  0  0  0  0  4           0  0  0
   -1.6198    1.1762   -1.4525 C   0  0  0  0  0  4           0  0  0
   -1.4109    1.1860   -3.8683 C   0  0  0  0  0  4           0  0  0
   -3.2391    2.3203   -2.8101 C   0  0  0  0  0  4           0  0  0
  1  5  1  0     0  0
  1 16  1  0     0  0
  2  6  2  0     0  0
  2  7  1  0     0  0
  3  6  1  0     0  0
  3 17  1  0     0  0
  3 18  1  0     0  0
  4 19  1  0     0  0
  4 20  1  0     0  0
  4 21  1  0     0  0
  5  9  2  0     0  0
  5 10  1  0     0  0
  6 11  1  0     0  0
  7 12  2  0     0  0
  8 13  2  0     0  0
  8 14  1  0     0  0
  8 17  1  0     0  0
  9 13  1  0     0  0
 10 14  2  0     0  0
 11 15  2  0     0  0
 12 15  1  0     0  0
 18 19  1  0     0  0
M  END
> <standard_type>
pIC50

> <# Confs.>
25

> <canonical_smiles>
CN(C)CCN(CC1=CC=C(OC)C=C1)C2=NC=CC=C2

> <standard_relation>
=

> <Publication_ID>
nan

> <predicted_activity_value>
nan

> <actual_activity_value>
-0.04139268515822508

> <Compound>
Pyrilamine

> <standard_units>
uM

> hash
3065239221153267079

$$$$
44
XXILIB    08252103503D 0   0.00000     0.00000

 21 22  0     1  0            999 V2000
    3.6687    4.4577   -2.7382 O   0  0  0  0  0  2           0  0  0
   -0.1577    0.5845    2.3130 N   0  0  0  0  0  3           0  0  0
    0.0000    0.0000    0.0000 N   0  0  1  0  0  3           0  0  0
   -2.3356    1.1704   -2.7322 N   0  0  2  0  0  3           0  0  0
    3.0803    3.4473   -2.0314 C   0  0  0  0  0  4           0  0  0
   -0.6900    0.0000    1.2053 C   0  0  0  0  0  4           0  0  0
   -0.8822    0.5533    3.4550 C   0  0  0  0  0  4           0  0  0
    2.0325    1.2012   -0.6935 C   0  0  0  0  0  4           0  0  0
    2.0427    3.5992   -1.1082 C   0  0  0  0  0  4           0  0  0
    3.5900    2.1698   -2.2825 C   0  0  0  0  0  4           0  0  0
   -1.9444   -0.6155    1.2411 C   0  0  0  0  0  4           0  0  0
   -2.1284   -0.0340    3.5663 C   0  0  0  0  0  4           0  0  0
    1.5214    2.4818   -0.4481 C   0  0  0  0  0  4           0  0  0
    3.0685    1.0549   -1.6227 C   0  0  0  0  0  4           0  0  0
   -2.6639   -0.6283    2.4335 C   0  0  0  0  0  4           0  0  0
    3.1523    5.7619   -2.4842 C   0  0  0  0  0  4           0  0  0
    1.4504   -0.0000    0.0000 C   0  0  0  0  0  4           0  0  0
   -0.6995   -0.0313   -1.2815 C   0  0  0  0  0  4           0  0  0
   -1.6198    1.1762   -1.4525 C   0  0  0  0  0  4           0  0  0
   -1.4109    1.1860   -3.8683 C   0  0  0  0  0  4           0  0  0
   -3.2391    2.3203   -2.8101 C   0  0  0  0  0  4           0  0  0
  1  5  1  0     0  0
  1 16  1  0     0  0
  2  6  2  0     0  0
  2  7  1  0     0  0
  3  6  1  0     0  0
  3 17  1  0     0  0
  3 18  1  0     0  0
  4 19  1  0     0  0
  4 20  1  0     0  0
  4 21  1  0     0  0
  5  9  2  0     0  0
  5 10  1  0     0  0
  6 11  1  0     0  0
  7 12  2  0     0  0
  8 13  2  0     0  0
  8 14  1  0     0  0
  8 17  1  0     0  0
  9 13  1  0     0  0
 10 14  2  0     0  0
 11 15  2  0     0  0
 12 15  1  0     0  0
 18 19  1  0     0  0
M  END
> <standard_type>
pIC50

> <# Confs.>
25

> <canonical_smiles>
CN(C)CCN(CC1=CC=C(OC)C=C1)C2=NC=CC=C2

> <standard_relation>
=

> <Publication_ID>
nan

> <predicted_activity_value>
nan

> <actual_activity_value>
-0.04139268515822508

> <Compound>
Pyrilamine

> <standard_units>
uM

> hash
3065239221153267079

$$$$
44
XXILIB    08252103503D 0   0.00000     0.00000

 21 22  0     1  0            999 V2000
    3.7799   -4.4776   -2.6104 O   0  0  0  0  0  2           0  0  0
   -0.1577    0.5845    2.3130 N   0  0  0  0  0  3           0  0  0
    0.0000    0.0000    0.0000 N   0  0  1  0  0  3           0  0  0
   -2.3356    1.1704   -2.7322 N   0  0  2  0  0  3           0  0  0
    3.1549   -3.4606   -1.9457 C   0  0  0  0  0  4           0  0  0
   -0.6900    0.0000    1.2053 C   0  0  0  0  0  4           0  0  0
   -0.8822    0.5533    3.4550 C   0  0  0  0  0  4           0  0  0
    2.0325   -1.2012   -0.6935 C   0  0  0  0  0  4           0  0  0
    2.0745   -3.6049   -1.0717 C   0  0  0  0  0  4           0  0  0
    3.6707   -2.1842   -2.1897 C   0  0  0  0  0  4           0  0  0
   -1.9444   -0.6155    1.2411 C   0  0  0  0  0  4           0  0  0
   -2.1284   -0.0340    3.5663 C   0  0  0  0  0  4           0  0  0
    1.5214   -2.4818   -0.4481 C   0  0  0  0  0  4           0  0  0
    3.1176   -1.0637   -1.5663 C   0  0  0  0  0  4           0  0  0
   -2.6639   -0.6283    2.4335 C   0  0  0  0  0  4           0  0  0
    3.2561   -5.7805   -2.3649 C   0  0  0  0  0  4           0  0  0
    1.4504    0.0000   -0.0000 C   0  0  0  0  0  4           0  0  0
   -0.6995   -0.0313   -1.2815 C   0  0  0  0  0  4           0  0  0
   -1.6198    1.1762   -1.4525 C   0  0  0  0  0  4           0  0  0
   -1.4109    1.1860   -3.8683 C   0  0  0  0  0  4           0  0  0
   -3.2391    2.3203   -2.8101 C   0  0  0  0  0  4           0  0  0
  1  5  1  0     0  0
  1 16  1  0     0  0
  2  6  2  0     0  0
  2  7  1  0     0  0
  3  6  1  0     0  0
  3 17  1  0     0  0
  3 18  1  0     0  0
  4 19  1  0     0  0
  4 20  1  0     0  0
  4 21  1  0     0  0
  5  9  2  0     0  0
  5 10  1  0     0  0
  6 11  1  0     0  0
  7 12  2  0     0  0
  8 13  2  0     0  0
  8 14  1  0     0  0
  8 17  1  0     0  0
  9 13  1  0     0  0
 10 14  2  0     0  0
 11 15  2  0     0  0
 12 15  1  0     0  0
 18 19  1  0     0  0
M  END
> <standard_type>
pIC50

> <# Confs.>
25

> <canonical_smiles>
CN(C)CCN(CC1=CC=C(OC)C=C1)C2=NC=CC=C2

> <standard_relation>
=

> <Publication_ID>
nan

> <predicted_activity_value>
nan

> <actual_activity_value>
-0.04139268515822508

> <Compound>
Pyrilamine

> <standard_units>
uM

> hash
3065239221153267079

$$$$
44
XXILIB    08252103503D 0   0.00000     0.00000

 21 22  0     1  0            999 V2000
    3.6283    4.6149   -2.4999 O   0  0  0  0  0  2           0  0  0
   -0.1577   -0.5845    2.3130 N   0  0  0  0  0  3           0  0  0
    0.0000    0.0000    0.0000 N   0  0  1  0  0  3           0  0  0
   -2.2808   -1.3394   -2.7008 N   0  0  2  0  0  3           0  0  0
    3.1638    3.4525   -1.9522 C   0  0  0  0  0  4           0  0  0
   -0.6900   -0.0000    1.2053 C   0  0  0  0  0  4           0  0  0
   -0.8790   -0.5469    3.4568 C   0  0  0  0  0  4           0  0  0
    2.0325    1.2012   -0.6935 C   0  0  0  0  0  4           0  0  0
    3.6552    2.1733   -2.2246 C   0  0  0  0  0  4           0  0  0
    2.1069    3.6006   -1.0490 C   0  0  0  0  0  4           0  0  0
   -1.9424    0.6196    1.2422 C   0  0  0  0  0  4           0  0  0
   -2.1213    0.0482    3.5704 C   0  0  0  0  0  4           0  0  0
    3.0943    1.0573   -1.5953 C   0  0  0  0  0  4           0  0  0
    1.5478    2.4854   -0.4213 C   0  0  0  0  0  4           0  0  0
   -2.6576    0.6409    2.4371 C   0  0  0  0  0  4           0  0  0
    4.7054    4.4679   -3.4220 C   0  0  0  0  0  4           0  0  0
    1.4504   -0.0000   -0.0000 C   0  0  0  0  0  4           0  0  0
   -0.6995   -0.0313   -1.2815 C   0  0  0  0  0  4           0  0  0
   -1.5660   -1.2818   -1.4217 C   0  0  0  0  0  4           0  0  0
   -3.1740   -0.1910   -2.8724 C   0  0  0  0  0  4           0  0  0
   -3.0467   -2.5840   -2.7951 C   0  0  0  0  0  4           0  0  0
  1  5  1  0     0  0
  1 16  1  0     0  0
  2  6  2  0     0  0
  2  7  1  0     0  0
  3  6  1  0     0  0
  3 17  1  0     0  0
  3 18  1  0     0  0
  4 19  1  0     0  0
  4 20  1  0     0  0
  4 21  1  0     0  0
  5  9  2  0     0  0
  5 10  1  0     0  0
  6 11  1  0     0  0
  7 12  2  0     0  0
  8 13  2  0     0  0
  8 14  1  0     0  0
  8 17  1  0     0  0
  9 13  1  0     0  0
 10 14  2  0     0  0
 11 15  2  0     0  0
 12 15  1  0     0  0
 18 19  1  0     0  0
M  END
> <standard_type>
pIC50

> <# Confs.>
25

> <canonical_smiles>
CN(C)CCN(CC1=CC=C(OC)C=C1)C2=NC=CC=C2

> <standard_relation>
=

> <Publication_ID>
nan

> <predicted_activity_value>
nan

> <actual_activity_value>
-0.04139268515822508

> <Compound>
Pyrilamine

> <standard_units>
uM

> hash
3065239221153267079

$$$$
44
XXILIB    08252103503D 0   0.00000     0.00000

 21 22  0     1  0            999 V2000
    3.5698   -5.2711    0.1163 O   0  0  0  0  0  2           0  0  0
   -0.0218   -0.0000    2.3908 N   0  0  0  0  0  3           0  0  0
    0.0000    0.0000    0.0000 N   0  0  1  0  0  3           0  0  0
   -1.7039    1.3741   -3.0820 N   0  0  2  0  0  3           0  0  0
    3.0693   -4.0057   -0.0069 C   0  0  0  0  0  4           0  0  0
   -0.6900   -0.0000    1.2053 C   0  0  0  0  0  4           0  0  0
   -0.7527    0.0037    3.5291 C   0  0  0  0  0  4           0  0  0
    2.0325   -1.3871    0.0000 C   0  0  0  0  0  4           0  0  0
    2.8265   -3.3422   -1.2122 C   0  0  0  0  0  4           0  0  0
    2.7913   -3.3555    1.1993 C   0  0  0  0  0  4           0  0  0
   -2.0870    0.0024    1.1594 C   0  0  0  0  0  4           0  0  0
   -2.1344    0.0082    3.5629 C   0  0  0  0  0  4           0  0  0
    2.3079   -2.0434   -1.2062 C   0  0  0  0  0  4           0  0  0
    2.2734   -2.0586    1.2038 C   0  0  0  0  0  4           0  0  0
   -2.8083    0.0073    2.3509 C   0  0  0  0  0  4           0  0  0
    3.8555   -5.9370   -1.1114 C   0  0  0  0  0  4           0  0  0
    1.4504    0.0000   -0.0000 C   0  0  0  0  0  4           0  0  0
   -0.6995   -0.0313   -1.2815 C   0  0  0  0  0  4           0  0  0
   -1.0011    1.3756   -1.7950 C   0  0  0  0  0  4           0  0  0
   -0.9195    0.7082   -4.1248 C   0  0  0  0  0  4           0  0  0
   -2.0114    2.7463   -3.4906 C   0  0  0  0  0  4           0  0  0
  1  5  1  0     0  0
  1 16  1  0     0  0
  2  6  2  0     0  0
  2  7  1  0     0  0
  3  6  1  0     0  0
  3 17  1  0     0  0
  3 18  1  0     0  0
  4 19  1  0     0  0
  4 20  1  0     0  0
  4 21  1  0     0  0
  5  9  2  0     0  0
  5 10  1  0     0  0
  6 11  1  0     0  0
  7 12  2  0     0  0
  8 13  2  0     0  0
  8 14  1  0     0  0
  8 17  1  0     0  0
  9 13  1  0     0  0
 10 14  2  0     0  0
 11 15  2  0     0  0
 12 15  1  0     0  0
 18 19  1  0     0  0
M  END
> <standard_type>
pIC50

> <# Confs.>
25

> <canonical_smiles>
CN(C)CCN(CC1=CC=C(OC)C=C1)C2=NC=CC=C2

> <standard_relation>
=

> <Publication_ID>
nan

> <predicted_activity_value>
nan

> <actual_activity_value>
-0.04139268515822508

> <Compound>
Pyrilamine

> <standard_units>
uM

> hash
3065239221153267079

$$$$
44
XXILIB    08252103503D 0   0.00000     0.00000

 21 22  0     1  0            999 V2000
    3.5698    5.2711   -0.1163 O   0  0  0  0  0  2           0  0  0
   -0.1577    0.5845    2.3130 N   0  0  0  0  0  3           0  0  0
    0.0000    0.0000    0.0000 N   0  0  1  0  0  3           0  0  0
   -2.3356    1.1704   -2.7322 N   0  0  2  0  0  3           0  0  0
    3.0693    4.0057    0.0069 C   0  0  0  0  0  4           0  0  0
   -0.6900    0.0000    1.2053 C   0  0  0  0  0  4           0  0  0
   -0.8822    0.5533    3.4550 C   0  0  0  0  0  4           0  0  0
    2.0325    1.3871    0.0000 C   0  0  0  0  0  4           0  0  0
    2.8265    3.3422    1.2122 C   0  0  0  0  0  4           0  0  0
    2.7913    3.3555   -1.1993 C   0  0  0  0  0  4           0  0  0
   -1.9444   -0.6155    1.2411 C   0  0  0  0  0  4           0  0  0
   -2.1284   -0.0340    3.5663 C   0  0  0  0  0  4           0  0  0
    2.3079    2.0434    1.2062 C   0  0  0  0  0  4           0  0  0
    2.2734    2.0586   -1.2038 C   0  0  0  0  0  4           0  0  0
   -2.6639   -0.6283    2.4335 C   0  0  0  0  0  4           0  0  0
    3.8555    5.9370    1.1114 C   0  0  0  0  0  4           0  0  0
    1.4504   -0.0000   -0.0000 C   0  0  0  0  0  4           0  0  0
   -0.6995   -0.0313   -1.2815 C   0  0  0  0  0  4           0  0  0
   -1.6198    1.1762   -1.4525 C   0  0  0  0  0  4           0  0  0
   -1.4109    1.1860   -3.8683 C   0  0  0  0  0  4           0  0  0
   -3.2391    2.3203   -2.8101 C   0  0  0  0  0  4           0  0  0
  1  5  1  0     0  0
  1 16  1  0     0  0
  2  6  2  0     0  0
  2  7  1  0     0  0
  3  6  1  0     0  0
  3 17  1  0     0  0
  3 18  1  0     0  0
  4 19  1  0     0  0
  4 20  1  0     0  0
  4 21  1  0     0  0
  5  9  2  0     0  0
  5 10  1  0     0  0
  6 11  1  0     0  0
  7 12  2  0     0  0
  8 13  2  0     0  0
  8 14  1  0     0  0
  8 17  1  0     0  0
  9 13  1  0     0  0
 10 14  2  0     0  0
 11 15  2  0     0  0
 12 15  1  0     0  0
 18 19  1  0     0  0
M  END
> <standard_type>
pIC50

> <# Confs.>
25

> <canonical_smiles>
CN(C)CCN(CC1=CC=C(OC)C=C1)C2=NC=CC=C2

> <standard_relation>
=

> <Publication_ID>
nan

> <predicted_activity_value>
nan

> <actual_activity_value>
-0.04139268515822508

> <Compound>
Pyrilamine

> <standard_units>
uM

> hash
3065239221153267079

$$$$
44
XXILIB    08252103503D 0   0.00000     0.00000

 21 22  0     1  0            999 V2000
    3.5698   -5.2711    0.1163 O   0  0  0  0  0  2           0  0  0
   -0.1577    0.5845    2.3130 N   0  0  0  0  0  3           0  0  0
    0.0000    0.0000    0.0000 N   0  0  1  0  0  3           0  0  0
   -2.3356    1.1704   -2.7322 N   0  0  2  0  0  3           0  0  0
    3.0693   -4.0057   -0.0069 C   0  0  0  0  0  4           0  0  0
   -0.6900    0.0000    1.2053 C   0  0  0  0  0  4           0  0  0
   -0.8822    0.5533    3.4550 C   0  0  0  0  0  4           0  0  0
    2.0325   -1.3871    0.0000 C   0  0  0  0  0  4           0  0  0
    2.8265   -3.3422   -1.2122 C   0  0  0  0  0  4           0  0  0
    2.7913   -3.3555    1.1993 C   0  0  0  0  0  4           0  0  0
   -1.9444   -0.6155    1.2411 C   0  0  0  0  0  4           0  0  0
   -2.1284   -0.0340    3.5663 C   0  0  0  0  0  4           0  0  0
    2.3079   -2.0434   -1.2062 C   0  0  0  0  0  4           0  0  0
    2.2734   -2.0586    1.2038 C   0  0  0  0  0  4           0  0  0
   -2.6639   -0.6283    2.4335 C   0  0  0  0  0  4           0  0  0
    3.8555   -5.9370   -1.1114 C   0  0  0  0  0  4           0  0  0
    1.4504    0.0000   -0.0000 C   0  0  0  0  0  4           0  0  0
   -0.6995   -0.0313   -1.2815 C   0  0  0  0  0  4           0  0  0
   -1.6198    1.1762   -1.4525 C   0  0  0  0  0  4           0  0  0
   -3.2092    2.3386   -2.8676 C   0  0  0  0  0  4           0  0  0
   -3.1228   -0.0574   -2.8644 C   0  0  0  0  0  4           0  0  0
  1  5  1  0     0  0
  1 16  1  0     0  0
  2  6  2  0     0  0
  2  7  1  0     0  0
  3  6  1  0     0  0
  3 17  1  0     0  0
  3 18  1  0     0  0
  4 19  1  0     0  0
  4 20  1  0     0  0
  4 21  1  0     0  0
  5  9  2  0     0  0
  5 10  1  0     0  0
  6 11  1  0     0  0
  7 12  2  0     0  0
  8 13  2  0     0  0
  8 14  1  0     0  0
  8 17  1  0     0  0
  9 13  1  0     0  0
 10 14  2  0     0  0
 11 15  2  0     0  0
 12 15  1  0     0  0
 18 19  1  0     0  0
M  END
> <standard_type>
pIC50

> <# Confs.>
25

> <canonical_smiles>
CN(C)CCN(CC1=CC=C(OC)C=C1)C2=NC=CC=C2

> <standard_relation>
=

> <Publication_ID>
nan

> <predicted_activity_value>
nan

> <actual_activity_value>
-0.04139268515822508

> <Compound>
Pyrilamine

> <standard_units>
uM

> hash
3065239221153267079

$$$$
44
XXILIB    08252103503D 0   0.00000     0.00000

 21 22  0     1  0            999 V2000
    3.7271    5.2051    0.1163 O   0  0  0  0  0  2           0  0  0
   -0.1577   -0.5845    2.3130 N   0  0  0  0  0  3           0  0  0
    0.0000    0.0000    0.0000 N   0  0  1  0  0  3           0  0  0
   -2.2808   -1.3394   -2.7008 N   0  0  2  0  0  3           0  0  0
    3.1748    3.9615   -0.0069 C   0  0  0  0  0  4           0  0  0
   -0.6900   -0.0000    1.2053 C   0  0  0  0  0  4           0  0  0
   -0.8790   -0.5469    3.4568 C   0  0  0  0  0  4           0  0  0
    2.0325    1.3871    0.0000 C   0  0  0  0  0  4           0  0  0
    2.8714    3.3234   -1.2122 C   0  0  0  0  0  4           0  0  0
    2.9055    3.3075    1.1993 C   0  0  0  0  0  4           0  0  0
   -1.9424    0.6196    1.2422 C   0  0  0  0  0  4           0  0  0
   -2.1213    0.0482    3.5704 C   0  0  0  0  0  4           0  0  0
    2.3079    2.0434   -1.2062 C   0  0  0  0  0  4           0  0  0
    2.3429    2.0294    1.2038 C   0  0  0  0  0  4           0  0  0
   -2.6576    0.6409    2.4371 C   0  0  0  0  0  4           0  0  0
    4.0022    5.8754   -1.1114 C   0  0  0  0  0  4           0  0  0
    1.4504   -0.0000   -0.0000 C   0  0  0  0  0  4           0  0  0
   -0.6995   -0.0313   -1.2815 C   0  0  0  0  0  4           0  0  0
   -1.5660   -1.2818   -1.4217 C   0  0  0  0  0  4           0  0  0
   -3.1023   -2.5477   -2.8064 C   0  0  0  0  0  4           0  0  0
   -1.3297   -1.2856   -3.8131 C   0  0  0  0  0  4           0  0  0
  1  5  1  0     0  0
  1 16  1  0     0  0
  2  6  2  0     0  0
  2  7  1  0     0  0
  3  6  1  0     0  0
  3 17  1  0     0  0
  3 18  1  0     0  0
  4 19  1  0     0  0
  4 20  1  0     0  0
  4 21  1  0     0  0
  5  9  2  0     0  0
  5 10  1  0     0  0
  6 11  1  0     0  0
  7 12  2  0     0  0
  8 13  2  0     0  0
  8 14  1  0     0  0
  8 17  1  0     0  0
  9 13  1  0     0  0
 10 14  2  0     0  0
 11 15  2  0     0  0
 12 15  1  0     0  0
 18 19  1  0     0  0
M  END
> <standard_type>
pIC50

> <# Confs.>
25

> <canonical_smiles>
CN(C)CCN(CC1=CC=C(OC)C=C1)C2=NC=CC=C2

> <standard_relation>
=

> <Publication_ID>
nan

> <predicted_activity_value>
nan

> <actual_activity_value>
-0.04139268515822508

> <Compound>
Pyrilamine

> <standard_units>
uM

> hash
3065239221153267079

$$$$
44
XXILIB    08252103503D 0   0.00000     0.00000

 21 22  0     1  0            999 V2000
    3.7799    4.4776    2.6104 O   0  0  0  0  0  2           0  0  0
   -1.9147    0.5845    1.3071 N   0  0  0  0  0  3           0  0  0
    0.0000    0.0000    0.0000 N   0  0  1  0  0  3           0  0  0
   -1.6405   -1.5239   -3.0457 N   0  0  2  0  0  3           0  0  0
    3.1549    3.4606    1.9457 C   0  0  0  0  0  4           0  0  0
   -0.6900    0.0000    1.2053 C   0  0  0  0  0  4           0  0  0
   -2.5359    0.5469    2.5083 C   0  0  0  0  0  4           0  0  0
    2.0325    1.2012    0.6935 C   0  0  0  0  0  4           0  0  0
    2.0745    3.6049    1.0717 C   0  0  0  0  0  4           0  0  0
    3.6707    2.1842    2.1897 C   0  0  0  0  0  4           0  0  0
   -0.0878   -0.6196    2.3040 C   0  0  0  0  0  4           0  0  0
   -2.0049   -0.0482    3.6371 C   0  0  0  0  0  4           0  0  0
    1.5214    2.4818    0.4481 C   0  0  0  0  0  4           0  0  0
    3.1176    1.0637    1.5663 C   0  0  0  0  0  4           0  0  0
   -0.7561   -0.6409    3.5257 C   0  0  0  0  0  4           0  0  0
    3.2561    5.7805    2.3649 C   0  0  0  0  0  4           0  0  0
    1.4504   -0.0000    0.0000 C   0  0  0  0  0  4           0  0  0
   -0.6995   -0.0313   -1.2815 C   0  0  0  0  0  4           0  0  0
   -0.9390   -1.4626   -1.7595 C   0  0  0  0  0  4           0  0  0
   -2.9554   -0.8818   -2.9748 C   0  0  0  0  0  4           0  0  0
   -1.7893   -2.9167   -3.4733 C   0  0  0  0  0  4           0  0  0
  1  5  1  0     0  0
  1 16  1  0     0  0
  2  6  2  0     0  0
  2  7  1  0     0  0
  3  6  1  0     0  0
  3 17  1  0     0  0
  3 18  1  0     0  0
  4 19  1  0     0  0
  4 20  1  0     0  0
  4 21  1  0     0  0
  5  9  2  0     0  0
  5 10  1  0     0  0
  6 11  1  0     0  0
  7 12  2  0     0  0
  8 13  2  0     0  0
  8 14  1  0     0  0
  8 17  1  0     0  0
  9 13  1  0     0  0
 10 14  2  0     0  0
 11 15  2  0     0  0
 12 15  1  0     0  0
 18 19  1  0     0  0
M  END
> <standard_type>
pIC50

> <# Confs.>
25

> <canonical_smiles>
CN(C)CCN(CC1=CC=C(OC)C=C1)C2=NC=CC=C2

> <standard_relation>
=

> <Publication_ID>
nan

> <predicted_activity_value>
nan

> <actual_activity_value>
-0.04139268515822508

> <Compound>
Pyrilamine

> <standard_units>
uM

> hash
3065239221153267079

$$$$
44
XXILIB    08252103503D 0   0.00000     0.00000

 21 22  0     1  0            999 V2000
    3.7271   -5.2051   -0.1163 O   0  0  0  0  0  2           0  0  0
   -0.1577   -0.5845    2.3130 N   0  0  0  0  0  3           0  0  0
    0.0000    0.0000    0.0000 N   0  0  1  0  0  3           0  0  0
   -2.2808   -1.3394   -2.7008 N   0  0  2  0  0  3           0  0  0
    3.1748   -3.9615    0.0069 C   0  0  0  0  0  4           0  0  0
   -0.6900   -0.0000    1.2053 C   0  0  0  0  0  4           0  0  0
   -0.8790   -0.5469    3.4568 C   0  0  0  0  0  4           0  0  0
    2.0325   -1.3871    0.0000 C   0  0  0  0  0  4           0  0  0
    2.8714   -3.3234    1.2122 C   0  0  0  0  0  4           0  0  0
    2.9055   -3.3075   -1.1993 C   0  0  0  0  0  4           0  0  0
   -1.9424    0.6196    1.2422 C   0  0  0  0  0  4           0  0  0
   -2.1213    0.0482    3.5704 C   0  0  0  0  0  4           0  0  0
    2.3079   -2.0434    1.2062 C   0  0  0  0  0  4           0  0  0
    2.3429   -2.0294   -1.2038 C   0  0  0  0  0  4           0  0  0
   -2.6576    0.6409    2.4371 C   0  0  0  0  0  4           0  0  0
    4.0022   -5.8754    1.1114 C   0  0  0  0  0  4           0  0  0
    1.4504    0.0000   -0.0000 C   0  0  0  0  0  4           0  0  0
   -0.6995   -0.0313   -1.2815 C   0  0  0  0  0  4           0  0  0
   -1.5660   -1.2818   -1.4217 C   0  0  0  0  0  4           0  0  0
   -3.1740   -0.1910   -2.8724 C   0  0  0  0  0  4           0  0  0
   -3.0467   -2.5840   -2.7951 C   0  0  0  0  0  4           0  0  0
  1  5  1  0     0  0
  1 16  1  0     0  0
  2  6  2  0     0  0
  2  7  1  0     0  0
  3  6  1  0     0  0
  3 17  1  0     0  0
  3 18  1  0     0  0
  4 19  1  0     0  0
  4 20  1  0     0  0
  4 21  1  0     0  0
  5  9  2  0     0  0
  5 10  1  0     0  0
  6 11  1  0     0  0
  7 12  2  0     0  0
  8 13  2  0     0  0
  8 14  1  0     0  0
  8 17  1  0     0  0
  9 13  1  0     0  0
 10 14  2  0     0  0
 11 15  2  0     0  0
 12 15  1  0     0  0
 18 19  1  0     0  0
M  END
> <standard_type>
pIC50

> <# Confs.>
25

> <canonical_smiles>
CN(C)CCN(CC1=CC=C(OC)C=C1)C2=NC=CC=C2

> <standard_relation>
=

> <Publication_ID>
nan

> <predicted_activity_value>
nan

> <actual_activity_value>
-0.04139268515822508

> <Compound>
Pyrilamine

> <standard_units>
uM

> hash
3065239221153267079

$$$$
44
XXILIB    08252103503D 0   0.00000     0.00000

 21 22  0     1  0            999 V2000
    3.6687    4.4577   -2.7382 O   0  0  0  0  0  2           0  0  0
   -0.1577   -0.5845    2.3130 N   0  0  0  0  0  3           0  0  0
    0.0000    0.0000    0.0000 N   0  0  1  0  0  3           0  0  0
   -2.2808   -1.3394   -2.7008 N   0  0  2  0  0  3           0  0  0
    3.0803    3.4473   -2.0314 C   0  0  0  0  0  4           0  0  0
   -0.6900   -0.0000    1.2053 C   0  0  0  0  0  4           0  0  0
   -0.8790   -0.5469    3.4568 C   0  0  0  0  0  4           0  0  0
    2.0325    1.2012   -0.6935 C   0  0  0  0  0  4           0  0  0
    2.0427    3.5992   -1.1082 C   0  0  0  0  0  4           0  0  0
    3.5900    2.1698   -2.2825 C   0  0  0  0  0  4           0  0  0
   -1.9424    0.6196    1.2422 C   0  0  0  0  0  4           0  0  0
   -2.1213    0.0482    3.5704 C   0  0  0  0  0  4           0  0  0
    1.5214    2.4818   -0.4481 C   0  0  0  0  0  4           0  0  0
    3.0685    1.0549   -1.6227 C   0  0  0  0  0  4           0  0  0
   -2.6576    0.6409    2.4371 C   0  0  0  0  0  4           0  0  0
    3.1523    5.7619   -2.4842 C   0  0  0  0  0  4           0  0  0
    1.4504   -0.0000    0.0000 C   0  0  0  0  0  4           0  0  0
   -0.6995   -0.0313   -1.2815 C   0  0  0  0  0  4           0  0  0
   -1.5660   -1.2818   -1.4217 C   0  0  0  0  0  4           0  0  0
   -3.1023   -2.5477   -2.8064 C   0  0  0  0  0  4           0  0  0
   -1.3297   -1.2856   -3.8131 C   0  0  0  0  0  4           0  0  0
  1  5  1  0     0  0
  1 16  1  0     0  0
  2  6  2  0     0  0
  2  7  1  0     0  0
  3  6  1  0     0  0
  3 17  1  0     0  0
  3 18  1  0     0  0
  4 19  1  0     0  0
  4 20  1  0     0  0
  4 21  1  0     0  0
  5  9  2  0     0  0
  5 10  1  0     0  0
  6 11  1  0     0  0
  7 12  2  0     0  0
  8 13  2  0     0  0
  8 14  1  0     0  0
  8 17  1  0     0  0
  9 13  1  0     0  0
 10 14  2  0     0  0
 11 15  2  0     0  0
 12 15  1  0     0  0
 18 19  1  0     0  0
M  END
> <standard_type>
pIC50

> <# Confs.>
25

> <canonical_smiles>
CN(C)CCN(CC1=CC=C(OC)C=C1)C2=NC=CC=C2

> <standard_relation>
=

> <Publication_ID>
nan

> <predicted_activity_value>
nan

> <actual_activity_value>
-0.04139268515822508

> <Compound>
Pyrilamine

> <standard_units>
uM

> hash
3065239221153267079

$$$$
44
XXILIB    08252103503D 0   0.00000     0.00000

 21 22  0     1  0            999 V2000
    3.7271    4.5659   -2.5019 O   0  0  0  0  0  2           0  0  0
   -0.1577    0.5845    2.3130 N   0  0  0  0  0  3           0  0  0
    0.0000    0.0000    0.0000 N   0  0  1  0  0  3           0  0  0
   -2.3356    1.1704   -2.7322 N   0  0  2  0  0  3           0  0  0
    3.1748    3.4273   -1.9867 C   0  0  0  0  0  4           0  0  0
   -0.6900    0.0000    1.2053 C   0  0  0  0  0  4           0  0  0
   -0.8822    0.5533    3.4550 C   0  0  0  0  0  4           0  0  0
    2.0325    1.2012   -0.6935 C   0  0  0  0  0  4           0  0  0
    2.8714    2.2720   -2.7114 C   0  0  0  0  0  4           0  0  0
    2.9055    3.4640   -0.6152 C   0  0  0  0  0  4           0  0  0
   -1.9444   -0.6155    1.2411 C   0  0  0  0  0  4           0  0  0
   -2.1284   -0.0340    3.5663 C   0  0  0  0  0  4           0  0  0
    2.3079    1.1665   -2.0662 C   0  0  0  0  0  4           0  0  0
    2.3429    2.3595    0.0278 C   0  0  0  0  0  4           0  0  0
   -2.6639   -0.6283    2.4335 C   0  0  0  0  0  4           0  0  0
    4.0022    4.5326   -3.9002 C   0  0  0  0  0  4           0  0  0
    1.4504   -0.0000    0.0000 C   0  0  0  0  0  4           0  0  0
   -0.6995   -0.0313   -1.2815 C   0  0  0  0  0  4           0  0  0
   -1.6198    1.1762   -1.4525 C   0  0  0  0  0  4           0  0  0
   -1.4109    1.1860   -3.8683 C   0  0  0  0  0  4           0  0  0
   -3.2391    2.3203   -2.8101 C   0  0  0  0  0  4           0  0  0
  1  5  1  0     0  0
  1 16  1  0     0  0
  2  6  2  0     0  0
  2  7  1  0     0  0
  3  6  1  0     0  0
  3 17  1  0     0  0
  3 18  1  0     0  0
  4 19  1  0     0  0
  4 20  1  0     0  0
  4 21  1  0     0  0
  5  9  2  0     0  0
  5 10  1  0     0  0
  6 11  1  0     0  0
  7 12  2  0     0  0
  8 13  2  0     0  0
  8 14  1  0     0  0
  8 17  1  0     0  0
  9 13  1  0     0  0
 10 14  2  0     0  0
 11 15  2  0     0  0
 12 15  1  0     0  0
 18 19  1  0     0  0
M  END
> <standard_type>
pIC50

> <# Confs.>
25

> <canonical_smiles>
CN(C)CCN(CC1=CC=C(OC)C=C1)C2=NC=CC=C2

> <standard_relation>
=

> <Publication_ID>
nan

> <predicted_activity_value>
nan

> <actual_activity_value>
-0.04139268515822508

> <Compound>
Pyrilamine

> <standard_units>
uM

> hash
3065239221153267079

$$$$
44
XXILIB    08252103503D 0   0.00000     0.00000

 21 22  0     1  0            999 V2000
    3.6687    5.2296   -0.1425 O   0  0  0  0  0  2           0  0  0
   -0.0218   -0.0000    2.3908 N   0  0  0  0  0  3           0  0  0
    0.0000    0.0000    0.0000 N   0  0  1  0  0  3           0  0  0
   -1.7039    1.3741   -3.0820 N   0  0  2  0  0  3           0  0  0
    3.0803    4.0011   -0.0356 C   0  0  0  0  0  4           0  0  0
   -0.6900   -0.0000    1.2053 C   0  0  0  0  0  4           0  0  0
   -0.7527    0.0037    3.5291 C   0  0  0  0  0  4           0  0  0
    2.0325    1.3871   -0.0000 C   0  0  0  0  0  4           0  0  0
    2.0427    3.6711    0.8399 C   0  0  0  0  0  4           0  0  0
    3.5900    3.0203   -0.8918 C   0  0  0  0  0  4           0  0  0
   -2.0870    0.0024    1.1594 C   0  0  0  0  0  4           0  0  0
   -2.1344    0.0082    3.5629 C   0  0  0  0  0  4           0  0  0
    1.5214    2.3734    0.8529 C   0  0  0  0  0  4           0  0  0
    3.0685    1.7249   -0.8779 C   0  0  0  0  0  4           0  0  0
   -2.8083    0.0073    2.3509 C   0  0  0  0  0  4           0  0  0
    3.1523    6.2321    0.7296 C   0  0  0  0  0  4           0  0  0
    1.4504   -0.0000   -0.0000 C   0  0  0  0  0  4           0  0  0
   -0.6995   -0.0313   -1.2815 C   0  0  0  0  0  4           0  0  0
   -1.0011    1.3756   -1.7950 C   0  0  0  0  0  4           0  0  0
   -0.9195    0.7082   -4.1248 C   0  0  0  0  0  4           0  0  0
   -2.0114    2.7463   -3.4906 C   0  0  0  0  0  4           0  0  0
  1  5  1  0     0  0
  1 16  1  0     0  0
  2  6  2  0     0  0
  2  7  1  0     0  0
  3  6  1  0     0  0
  3 17  1  0     0  0
  3 18  1  0     0  0
  4 19  1  0     0  0
  4 20  1  0     0  0
  4 21  1  0     0  0
  5  9  2  0     0  0
  5 10  1  0     0  0
  6 11  1  0     0  0
  7 12  2  0     0  0
  8 13  2  0     0  0
  8 14  1  0     0  0
  8 17  1  0     0  0
  9 13  1  0     0  0
 10 14  2  0     0  0
 11 15  2  0     0  0
 12 15  1  0     0  0
 18 19  1  0     0  0
M  END
> <standard_type>
pIC50

> <# Confs.>
25

> <canonical_smiles>
CN(C)CCN(CC1=CC=C(OC)C=C1)C2=NC=CC=C2

> <standard_relation>
=

> <Publication_ID>
nan

> <predicted_activity_value>
nan

> <actual_activity_value>
-0.04139268515822508

> <Compound>
Pyrilamine

> <standard_units>
uM

> hash
3065239221153267079

$$$$
44
XXILIB    08252103503D 0   0.00000     0.00000

 21 22  0     1  0            999 V2000
    3.7271   -5.2051   -0.1163 O   0  0  0  0  0  2           0  0  0
   -0.0218   -0.0000    2.3908 N   0  0  0  0  0  3           0  0  0
    0.0000    0.0000    0.0000 N   0  0  1  0  0  3           0  0  0
   -1.7039    1.3741   -3.0820 N   0  0  2  0  0  3           0  0  0
    3.1748   -3.9615    0.0069 C   0  0  0  0  0  4           0  0  0
   -0.6900   -0.0000    1.2053 C   0  0  0  0  0  4           0  0  0
   -0.7527    0.0037    3.5291 C   0  0  0  0  0  4           0  0  0
    2.0325   -1.3871    0.0000 C   0  0  0  0  0  4           0  0  0
    2.8714   -3.3234    1.2122 C   0  0  0  0  0  4           0  0  0
    2.9055   -3.3075   -1.1993 C   0  0  0  0  0  4           0  0  0
   -2.0870    0.0024    1.1594 C   0  0  0  0  0  4           0  0  0
   -2.1344    0.0082    3.5629 C   0  0  0  0  0  4           0  0  0
    2.3079   -2.0434    1.2062 C   0  0  0  0  0  4           0  0  0
    2.3429   -2.0294   -1.2038 C   0  0  0  0  0  4           0  0  0
   -2.8083    0.0073    2.3509 C   0  0  0  0  0  4           0  0  0
    4.0022   -5.8754    1.1114 C   0  0  0  0  0  4           0  0  0
    1.4504    0.0000   -0.0000 C   0  0  0  0  0  4           0  0  0
   -0.6995   -0.0313   -1.2815 C   0  0  0  0  0  4           0  0  0
   -1.0011    1.3756   -1.7950 C   0  0  0  0  0  4           0  0  0
   -1.9792    2.7352   -3.5486 C   0  0  0  0  0  4           0  0  0
   -2.9563    0.6230   -2.9720 C   0  0  0  0  0  4           0  0  0
  1  5  1  0     0  0
  1 16  1  0     0  0
  2  6  2  0     0  0
  2  7  1  0     0  0
  3  6  1  0     0  0
  3 17  1  0     0  0
  3 18  1  0     0  0
  4 19  1  0     0  0
  4 20  1  0     0  0
  4 21  1  0     0  0
  5  9  2  0     0  0
  5 10  1  0     0  0
  6 11  1  0     0  0
  7 12  2  0     0  0
  8 13  2  0     0  0
  8 14  1  0     0  0
  8 17  1  0     0  0
  9 13  1  0     0  0
 10 14  2  0     0  0
 11 15  2  0     0  0
 12 15  1  0     0  0
 18 19  1  0     0  0
M  END
> <standard_type>
pIC50

> <# Confs.>
25

> <canonical_smiles>
CN(C)CCN(CC1=CC=C(OC)C=C1)C2=NC=CC=C2

> <standard_relation>
=

> <Publication_ID>
nan

> <predicted_activity_value>
nan

> <actual_activity_value>
-0.04139268515822508

> <Compound>
Pyrilamine

> <standard_units>
uM

> hash
3065239221153267079

$$$$
44
XXILIB    08252103503D 0   0.00000     0.00000

 21 22  0     1  0            999 V2000
    3.7271    5.2051    0.1163 O   0  0  0  0  0  2           0  0  0
   -0.1577   -0.5845    2.3130 N   0  0  0  0  0  3           0  0  0
    0.0000    0.0000    0.0000 N   0  0  1  0  0  3           0  0  0
   -1.6405   -1.5239   -3.0457 N   0  0  2  0  0  3           0  0  0
    3.1748    3.9615   -0.0069 C   0  0  0  0  0  4           0  0  0
   -0.6900    0.0000    1.2053 C   0  0  0  0  0  4           0  0  0
   -0.8790   -0.5469    3.4568 C   0  0  0  0  0  4           0  0  0
    2.0325    1.3871    0.0000 C   0  0  0  0  0  4           0  0  0
    2.8714    3.3234   -1.2122 C   0  0  0  0  0  4           0  0  0
    2.9055    3.3075    1.1993 C   0  0  0  0  0  4           0  0  0
   -1.9424    0.6196    1.2422 C   0  0  0  0  0  4           0  0  0
   -2.1213    0.0482    3.5704 C   0  0  0  0  0  4           0  0  0
    2.3079    2.0434   -1.2062 C   0  0  0  0  0  4           0  0  0
    2.3429    2.0294    1.2038 C   0  0  0  0  0  4           0  0  0
   -2.6576    0.6409    2.4371 C   0  0  0  0  0  4           0  0  0
    4.0022    5.8754   -1.1114 C   0  0  0  0  0  4           0  0  0
    1.4504   -0.0000   -0.0000 C   0  0  0  0  0  4           0  0  0
   -0.6995   -0.0313   -1.2815 C   0  0  0  0  0  4           0  0  0
   -0.9390   -1.4626   -1.7595 C   0  0  0  0  0  4           0  0  0
   -2.9554   -0.8818   -2.9748 C   0  0  0  0  0  4           0  0  0
   -1.7893   -2.9167   -3.4733 C   0  0  0  0  0  4           0  0  0
  1  5  1  0     0  0
  1 16  1  0     0  0
  2  6  2  0     0  0
  2  7  1  0     0  0
  3  6  1  0     0  0
  3 17  1  0     0  0
  3 18  1  0     0  0
  4 19  1  0     0  0
  4 20  1  0     0  0
  4 21  1  0     0  0
  5  9  2  0     0  0
  5 10  1  0     0  0
  6 11  1  0     0  0
  7 12  2  0     0  0
  8 13  2  0     0  0
  8 14  1  0     0  0
  8 17  1  0     0  0
  9 13  1  0     0  0
 10 14  2  0     0  0
 11 15  2  0     0  0
 12 15  1  0     0  0
 18 19  1  0     0  0
M  END
> <standard_type>
pIC50

> <# Confs.>
25

> <canonical_smiles>
CN(C)CCN(CC1=CC=C(OC)C=C1)C2=NC=CC=C2

> <standard_relation>
=

> <Publication_ID>
nan

> <predicted_activity_value>
nan

> <actual_activity_value>
-0.04139268515822508

> <Compound>
Pyrilamine

> <standard_units>
uM

> hash
3065239221153267079

$$$$
44
XXILIB    08252103503D 0   0.00000     0.00000

 21 22  0     1  0            999 V2000
    3.6283    5.2466    0.1425 O   0  0  0  0  0  2           0  0  0
   -0.1577   -0.5845    2.3130 N   0  0  0  0  0  3           0  0  0
    0.0000    0.0000    0.0000 N   0  0  1  0  0  3           0  0  0
   -2.2808   -1.3394   -2.7008 N   0  0  2  0  0  3           0  0  0
    3.1638    3.9661    0.0356 C   0  0  0  0  0  4           0  0  0
   -0.6900   -0.0000    1.2053 C   0  0  0  0  0  4           0  0  0
   -0.8790   -0.5469    3.4568 C   0  0  0  0  0  4           0  0  0
    2.0325    1.3871   -0.0000 C   0  0  0  0  0  4           0  0  0
    3.6552    2.9945   -0.8399 C   0  0  0  0  0  4           0  0  0
    2.1069    3.6427    0.8918 C   0  0  0  0  0  4           0  0  0
   -1.9424    0.6196    1.2422 C   0  0  0  0  0  4           0  0  0
   -2.1213    0.0482    3.5704 C   0  0  0  0  0  4           0  0  0
    3.0943    1.7133   -0.8529 C   0  0  0  0  0  4           0  0  0
    1.5478    2.3631    0.8779 C   0  0  0  0  0  4           0  0  0
   -2.6576    0.6409    2.4371 C   0  0  0  0  0  4           0  0  0
    4.7054    5.5804   -0.7296 C   0  0  0  0  0  4           0  0  0
    1.4504    0.0000   -0.0000 C   0  0  0  0  0  4           0  0  0
   -0.6995   -0.0313   -1.2815 C   0  0  0  0  0  4           0  0  0
   -1.5660   -1.2818   -1.4217 C   0  0  0  0  0  4           0  0  0
   -3.1740   -0.1910   -2.8724 C   0  0  0  0  0  4           0  0  0
   -3.0467   -2.5840   -2.7951 C   0  0  0  0  0  4           0  0  0
  1  5  1  0     0  0
  1 16  1  0     0  0
  2  6  2  0     0  0
  2  7  1  0     0  0
  3  6  1  0     0  0
  3 17  1  0     0  0
  3 18  1  0     0  0
  4 19  1  0     0  0
  4 20  1  0     0  0
  4 21  1  0     0  0
  5  9  2  0     0  0
  5 10  1  0     0  0
  6 11  1  0     0  0
  7 12  2  0     0  0
  8 13  2  0     0  0
  8 14  1  0     0  0
  8 17  1  0     0  0
  9 13  1  0     0  0
 10 14  2  0     0  0
 11 15  2  0     0  0
 12 15  1  0     0  0
 18 19  1  0     0  0
M  END
> <standard_type>
pIC50

> <# Confs.>
25

> <canonical_smiles>
CN(C)CCN(CC1=CC=C(OC)C=C1)C2=NC=CC=C2

> <standard_relation>
=

> <Publication_ID>
nan

> <predicted_activity_value>
nan

> <actual_activity_value>
-0.04139268515822508

> <Compound>
Pyrilamine

> <standard_units>
uM

> hash
3065239221153267079

$$$$
44
XXILIB    08252103503D 0   0.00000     0.00000

 21 22  0     1  0            999 V2000
    3.5171   -4.5950   -2.6277 O   0  0  0  0  0  2           0  0  0
   -0.0218   -0.0000    2.3908 N   0  0  0  0  0  3           0  0  0
    0.0000    0.0000    0.0000 N   0  0  1  0  0  3           0  0  0
   -1.7039    1.3741   -3.0820 N   0  0  2  0  0  3           0  0  0
    3.0893   -3.4392   -2.0379 C   0  0  0  0  0  4           0  0  0
   -0.6900   -0.0000    1.2053 C   0  0  0  0  0  4           0  0  0
   -0.7527    0.0037    3.5291 C   0  0  0  0  0  4           0  0  0
    2.0325   -1.2012   -0.6935 C   0  0  0  0  0  4           0  0  0
    3.6234   -2.1677   -2.2611 C   0  0  0  0  0  4           0  0  0
    2.0261   -3.5861   -1.1418 C   0  0  0  0  0  4           0  0  0
   -2.0870    0.0024    1.1594 C   0  0  0  0  0  4           0  0  0
   -2.1344    0.0082    3.5629 C   0  0  0  0  0  4           0  0  0
    3.0943   -1.0573   -1.5953 C   0  0  0  0  0  4           0  0  0
    1.4987   -2.4766   -0.4777 C   0  0  0  0  0  4           0  0  0
   -2.8083    0.0073    2.3509 C   0  0  0  0  0  4           0  0  0
    4.6016   -4.4494   -3.5413 C   0  0  0  0  0  4           0  0  0
    1.4504   -0.0000    0.0000 C   0  0  0  0  0  4           0  0  0
   -0.6995   -0.0313   -1.2815 C   0  0  0  0  0  4           0  0  0
   -1.0011    1.3756   -1.7950 C   0  0  0  0  0  4           0  0  0
   -0.9195    0.7082   -4.1248 C   0  0  0  0  0  4           0  0  0
   -2.0114    2.7463   -3.4906 C   0  0  0  0  0  4           0  0  0
  1  5  1  0     0  0
  1 16  1  0     0  0
  2  6  2  0     0  0
  2  7  1  0     0  0
  3  6  1  0     0  0
  3 17  1  0     0  0
  3 18  1  0     0  0
  4 19  1  0     0  0
  4 20  1  0     0  0
  4 21  1  0     0  0
  5  9  2  0     0  0
  5 10  1  0     0  0
  6 11  1  0     0  0
  7 12  2  0     0  0
  8 13  2  0     0  0
  8 14  1  0     0  0
  8 17  1  0     0  0
  9 13  1  0     0  0
 10 14  2  0     0  0
 11 15  2  0     0  0
 12 15  1  0     0  0
 18 19  1  0     0  0
M  END
> <standard_type>
pIC50

> <# Confs.>
25

> <canonical_smiles>
CN(C)CCN(CC1=CC=C(OC)C=C1)C2=NC=CC=C2

> <standard_relation>
=

> <Publication_ID>
nan

> <predicted_activity_value>
nan

> <actual_activity_value>
-0.04139268515822508

> <Compound>
Pyrilamine

> <standard_units>
uM

> hash
3065239221153267079

$$$$
44
XXILIB    08252103503D 0   0.00000     0.00000

 21 22  0     1  0            999 V2000
    3.7799   -4.4776   -2.6104 O   0  0  0  0  0  2           0  0  0
   -0.1577   -0.5845    2.3130 N   0  0  0  0  0  3           0  0  0
    0.0000    0.0000    0.0000 N   0  0  1  0  0  3           0  0  0
   -1.0636    1.1895   -3.4269 N   0  0  2  0  0  3           0  0  0
    3.1549   -3.4606   -1.9457 C   0  0  0  0  0  4           0  0  0
   -0.6900    0.0000    1.2053 C   0  0  0  0  0  4           0  0  0
   -0.8790   -0.5469    3.4568 C   0  0  0  0  0  4           0  0  0
    2.0325   -1.2012   -0.6935 C   0  0  0  0  0  4           0  0  0
    2.0745   -3.6049   -1.0717 C   0  0  0  0  0  4           0  0  0
    3.6707   -2.1842   -2.1897 C   0  0  0  0  0  4           0  0  0
   -1.9424    0.6196    1.2422 C   0  0  0  0  0  4           0  0  0
   -2.1213    0.0482    3.5704 C   0  0  0  0  0  4           0  0  0
    1.5214   -2.4818   -0.4481 C   0  0  0  0  0  4           0  0  0
    3.1176   -1.0637   -1.5663 C   0  0  0  0  0  4           0  0  0
   -2.6576    0.6409    2.4371 C   0  0  0  0  0  4           0  0  0
    3.2561   -5.7805   -2.3649 C   0  0  0  0  0  4           0  0  0
    1.4504    0.0000   -0.0000 C   0  0  0  0  0  4           0  0  0
   -0.6995   -0.0313   -1.2815 C   0  0  0  0  0  4           0  0  0
   -0.3740    1.1949   -2.1329 C   0  0  0  0  0  4           0  0  0
   -0.7009    0.0173   -4.2273 C   0  0  0  0  0  4           0  0  0
   -0.7540    2.4136   -4.1687 C   0  0  0  0  0  4           0  0  0
  1  5  1  0     0  0
  1 16  1  0     0  0
  2  6  2  0     0  0
  2  7  1  0     0  0
  3  6  1  0     0  0
  3 17  1  0     0  0
  3 18  1  0     0  0
  4 19  1  0     0  0
  4 20  1  0     0  0
  4 21  1  0     0  0
  5  9  2  0     0  0
  5 10  1  0     0  0
  6 11  1  0     0  0
  7 12  2  0     0  0
  8 13  2  0     0  0
  8 14  1  0     0  0
  8 17  1  0     0  0
  9 13  1  0     0  0
 10 14  2  0     0  0
 11 15  2  0     0  0
 12 15  1  0     0  0
 18 19  1  0     0  0
M  END
> <standard_type>
pIC50

> <# Confs.>
25

> <canonical_smiles>
CN(C)CCN(CC1=CC=C(OC)C=C1)C2=NC=CC=C2

> <standard_relation>
=

> <Publication_ID>
nan

> <predicted_activity_value>
nan

> <actual_activity_value>
-0.04139268515822508

> <Compound>
Pyrilamine

> <standard_units>
uM

> hash
3065239221153267079

$$$$
44
XXILIB    08252103503D 0   0.00000     0.00000

 21 22  0     1  0            999 V2000
    3.7271   -4.4496   -2.7032 O   0  0  0  0  0  2           0  0  0
   -0.1577   -0.5845    2.3130 N   0  0  0  0  0  3           0  0  0
    0.0000    0.0000    0.0000 N   0  0  1  0  0  3           0  0  0
   -2.2808   -1.3394   -2.7008 N   0  0  2  0  0  3           0  0  0
    3.1748   -3.4342   -1.9748 C   0  0  0  0  0  4           0  0  0
   -0.6900   -0.0000    1.2053 C   0  0  0  0  0  4           0  0  0
   -0.8790   -0.5469    3.4568 C   0  0  0  0  0  4           0  0  0
    2.0325   -1.2012   -0.6935 C   0  0  0  0  0  4           0  0  0
    2.8714   -3.4842   -0.6119 C   0  0  0  0  0  4           0  0  0
    2.9055   -2.2648   -2.6924 C   0  0  0  0  0  4           0  0  0
   -1.9424    0.6196    1.2422 C   0  0  0  0  0  4           0  0  0
   -2.1213    0.0482    3.5704 C   0  0  0  0  0  4           0  0  0
    2.3079   -2.3727    0.0229 C   0  0  0  0  0  4           0  0  0
    2.3429   -1.1556   -2.0573 C   0  0  0  0  0  4           0  0  0
   -2.6576    0.6409    2.4371 C   0  0  0  0  0  4           0  0  0
    4.0022   -5.6440   -1.9752 C   0  0  0  0  0  4           0  0  0
    1.4504    0.0000    0.0000 C   0  0  0  0  0  4           0  0  0
   -0.6995   -0.0313   -1.2815 C   0  0  0  0  0  4           0  0  0
   -1.5660   -1.2818   -1.4217 C   0  0  0  0  0  4           0  0  0
   -3.1023   -2.5477   -2.8064 C   0  0  0  0  0  4           0  0  0
   -1.3297   -1.2856   -3.8131 C   0  0  0  0  0  4           0  0  0
  1  5  1  0     0  0
  1 16  1  0     0  0
  2  6  2  0     0  0
  2  7  1  0     0  0
  3  6  1  0     0  0
  3 17  1  0     0  0
  3 18  1  0     0  0
  4 19  1  0     0  0
  4 20  1  0     0  0
  4 21  1  0     0  0
  5  9  2  0     0  0
  5 10  1  0     0  0
  6 11  1  0     0  0
  7 12  2  0     0  0
  8 13  2  0     0  0
  8 14  1  0     0  0
  8 17  1  0     0  0
  9 13  1  0     0  0
 10 14  2  0     0  0
 11 15  2  0     0  0
 12 15  1  0     0  0
 18 19  1  0     0  0
M  END
> <standard_type>
pIC50

> <# Confs.>
25

> <canonical_smiles>
CN(C)CCN(CC1=CC=C(OC)C=C1)C2=NC=CC=C2

> <standard_relation>
=

> <Publication_ID>
nan

> <predicted_activity_value>
nan

> <actual_activity_value>
-0.04139268515822508

> <Compound>
Pyrilamine

> <standard_units>
uM

> hash
3065239221153267079

$$$$
44
XXILIB    08252103503D 0   0.00000     0.00000

 21 22  0     1  0            999 V2000
    3.6283    4.6149   -2.4999 O   0  0  0  0  0  2           0  0  0
   -1.9147   -0.5845    1.3071 N   0  0  0  0  0  3           0  0  0
    0.0000    0.0000    0.0000 N   0  0  1  0  0  3           0  0  0
   -1.6405   -1.5239   -3.0457 N   0  0  2  0  0  3           0  0  0
    3.1638    3.4525   -1.9522 C   0  0  0  0  0  4           0  0  0
   -0.6900    0.0000    1.2053 C   0  0  0  0  0  4           0  0  0
   -2.5327   -0.5533    2.5101 C   0  0  0  0  0  4           0  0  0
    2.0325    1.2012   -0.6935 C   0  0  0  0  0  4           0  0  0
    3.6552    2.1733   -2.2246 C   0  0  0  0  0  4           0  0  0
    2.1069    3.6006   -1.0490 C   0  0  0  0  0  4           0  0  0
   -0.0857    0.6155    2.3051 C   0  0  0  0  0  4           0  0  0
   -1.9977    0.0340    3.6412 C   0  0  0  0  0  4           0  0  0
    3.0943    1.0573   -1.5953 C   0  0  0  0  0  4           0  0  0
    1.5478    2.4854   -0.4213 C   0  0  0  0  0  4           0  0  0
   -0.7498    0.6283    3.5293 C   0  0  0  0  0  4           0  0  0
    4.7054    4.4679   -3.4220 C   0  0  0  0  0  4           0  0  0
    1.4504   -0.0000   -0.0000 C   0  0  0  0  0  4           0  0  0
   -0.6995   -0.0313   -1.2815 C   0  0  0  0  0  4           0  0  0
   -0.9390   -1.4626   -1.7595 C   0  0  0  0  0  4           0  0  0
   -2.9554   -0.8818   -2.9748 C   0  0  0  0  0  4           0  0  0
   -1.7893   -2.9167   -3.4733 C   0  0  0  0  0  4           0  0  0
  1  5  1  0     0  0
  1 16  1  0     0  0
  2  6  2  0     0  0
  2  7  1  0     0  0
  3  6  1  0     0  0
  3 17  1  0     0  0
  3 18  1  0     0  0
  4 19  1  0     0  0
  4 20  1  0     0  0
  4 21  1  0     0  0
  5  9  2  0     0  0
  5 10  1  0     0  0
  6 11  1  0     0  0
  7 12  2  0     0  0
  8 13  2  0     0  0
  8 14  1  0     0  0
  8 17  1  0     0  0
  9 13  1  0     0  0
 10 14  2  0     0  0
 11 15  2  0     0  0
 12 15  1  0     0  0
 18 19  1  0     0  0
M  END
> <standard_type>
pIC50

> <# Confs.>
25

> <canonical_smiles>
CN(C)CCN(CC1=CC=C(OC)C=C1)C2=NC=CC=C2

> <standard_relation>
=

> <Publication_ID>
nan

> <predicted_activity_value>
nan

> <actual_activity_value>
-0.04139268515822508

> <Compound>
Pyrilamine

> <standard_units>
uM

> hash
3065239221153267079

$$$$
44
XXILIB    08252103503D 0   0.00000     0.00000

 21 22  0     1  0            999 V2000
    3.7799   -5.1830   -0.0219 O   0  0  0  0  0  2           0  0  0
   -0.0218   -0.0000    2.3908 N   0  0  0  0  0  3           0  0  0
    0.0000    0.0000    0.0000 N   0  0  1  0  0  3           0  0  0
   -1.7039    1.3741   -3.0820 N   0  0  2  0  0  3           0  0  0
    3.1549   -3.9698    0.0453 C   0  0  0  0  0  4           0  0  0
   -0.6900   -0.0000    1.2053 C   0  0  0  0  0  4           0  0  0
   -0.7527    0.0037    3.5291 C   0  0  0  0  0  4           0  0  0
    2.0325   -1.3871    0.0000 C   0  0  0  0  0  4           0  0  0
    2.0745   -3.6578    0.8744 C   0  0  0  0  0  4           0  0  0
    3.6707   -2.9864   -0.8042 C   0  0  0  0  0  4           0  0  0
   -2.0870    0.0024    1.1594 C   0  0  0  0  0  4           0  0  0
   -2.1344    0.0082    3.5629 C   0  0  0  0  0  4           0  0  0
    1.5214   -2.3734    0.8529 C   0  0  0  0  0  4           0  0  0
    3.1176   -1.7043   -0.8246 C   0  0  0  0  0  4           0  0  0
   -2.8083    0.0073    2.3509 C   0  0  0  0  0  4           0  0  0
    3.2561   -6.1885    0.8421 C   0  0  0  0  0  4           0  0  0
    1.4504   -0.0000   -0.0000 C   0  0  0  0  0  4           0  0  0
   -0.6995   -0.0313   -1.2815 C   0  0  0  0  0  4           0  0  0
   -1.0011    1.3756   -1.7950 C   0  0  0  0  0  4           0  0  0
   -0.9195    0.7082   -4.1248 C   0  0  0  0  0  4           0  0  0
   -2.0114    2.7463   -3.4906 C   0  0  0  0  0  4           0  0  0
  1  5  1  0     0  0
  1 16  1  0     0  0
  2  6  2  0     0  0
  2  7  1  0     0  0
  3  6  1  0     0  0
  3 17  1  0     0  0
  3 18  1  0     0  0
  4 19  1  0     0  0
  4 20  1  0     0  0
  4 21  1  0     0  0
  5  9  2  0     0  0
  5 10  1  0     0  0
  6 11  1  0     0  0
  7 12  2  0     0  0
  8 13  2  0     0  0
  8 14  1  0     0  0
  8 17  1  0     0  0
  9 13  1  0     0  0
 10 14  2  0     0  0
 11 15  2  0     0  0
 12 15  1  0     0  0
 18 19  1  0     0  0
M  END
> <standard_type>
pIC50

> <# Confs.>
25

> <canonical_smiles>
CN(C)CCN(CC1=CC=C(OC)C=C1)C2=NC=CC=C2

> <standard_relation>
=

> <Publication_ID>
nan

> <predicted_activity_value>
nan

> <actual_activity_value>
-0.04139268515822508

> <Compound>
Pyrilamine

> <standard_units>
uM

> hash
3065239221153267079

$$$$
44
XXILIB    08252103503D 0   0.00000     0.00000

 21 22  0     1  0            999 V2000
    3.5171   -5.2932    0.0219 O   0  0  0  0  0  2           0  0  0
   -0.1577    0.5845    2.3130 N   0  0  0  0  0  3           0  0  0
    0.0000    0.0000    0.0000 N   0  0  1  0  0  3           0  0  0
   -2.3356    1.1704   -2.7322 N   0  0  2  0  0  3           0  0  0
    3.0893   -3.9974   -0.0453 C   0  0  0  0  0  4           0  0  0
   -0.6900    0.0000    1.2053 C   0  0  0  0  0  4           0  0  0
   -0.8822    0.5533    3.4550 C   0  0  0  0  0  4           0  0  0
    2.0325   -1.3871    0.0000 C   0  0  0  0  0  4           0  0  0
    3.6234   -3.0078   -0.8744 C   0  0  0  0  0  4           0  0  0
    2.0261   -3.6766    0.8042 C   0  0  0  0  0  4           0  0  0
   -1.9444   -0.6155    1.2411 C   0  0  0  0  0  4           0  0  0
   -2.1284   -0.0340    3.5663 C   0  0  0  0  0  4           0  0  0
    3.0943   -1.7133   -0.8529 C   0  0  0  0  0  4           0  0  0
    1.4987   -2.3837    0.8246 C   0  0  0  0  0  4           0  0  0
   -2.6639   -0.6283    2.4335 C   0  0  0  0  0  4           0  0  0
    4.6016   -5.6239   -0.8421 C   0  0  0  0  0  4           0  0  0
    1.4504   -0.0000    0.0000 C   0  0  0  0  0  4           0  0  0
   -0.6995   -0.0313   -1.2815 C   0  0  0  0  0  4           0  0  0
   -1.6198    1.1762   -1.4525 C   0  0  0  0  0  4           0  0  0
   -1.4109    1.1860   -3.8683 C   0  0  0  0  0  4           0  0  0
   -3.2391    2.3203   -2.8101 C   0  0  0  0  0  4           0  0  0
  1  5  1  0     0  0
  1 16  1  0     0  0
  2  6  2  0     0  0
  2  7  1  0     0  0
  3  6  1  0     0  0
  3 17  1  0     0  0
  3 18  1  0     0  0
  4 19  1  0     0  0
  4 20  1  0     0  0
  4 21  1  0     0  0
  5  9  2  0     0  0
  5 10  1  0     0  0
  6 11  1  0     0  0
  7 12  2  0     0  0
  8 13  2  0     0  0
  8 14  1  0     0  0
  8 17  1  0     0  0
  9 13  1  0     0  0
 10 14  2  0     0  0
 11 15  2  0     0  0
 12 15  1  0     0  0
 18 19  1  0     0  0
M  END
> <standard_type>
pIC50

> <# Confs.>
25

> <canonical_smiles>
CN(C)CCN(CC1=CC=C(OC)C=C1)C2=NC=CC=C2

> <standard_relation>
=

> <Publication_ID>
nan

> <predicted_activity_value>
nan

> <actual_activity_value>
-0.04139268515822508

> <Compound>
Pyrilamine

> <standard_units>
uM

> hash
3065239221153267079

$$$$
44
XXILIB    08252103503D 0   0.00000     0.00000

 21 22  0     1  0            999 V2000
    3.5171    4.5950    2.6277 O   0  0  0  0  0  2           0  0  0
   -1.9147    0.5845    1.3071 N   0  0  0  0  0  3           0  0  0
    0.0000    0.0000    0.0000 N   0  0  1  0  0  3           0  0  0
   -2.2808   -1.3394   -2.7008 N   0  0  2  0  0  3           0  0  0
    3.0893    3.4392    2.0379 C   0  0  0  0  0  4           0  0  0
   -0.6900   -0.0000    1.2053 C   0  0  0  0  0  4           0  0  0
   -2.5359    0.5469    2.5083 C   0  0  0  0  0  4           0  0  0
    2.0325    1.2012    0.6935 C   0  0  0  0  0  4           0  0  0
    3.6234    2.1677    2.2611 C   0  0  0  0  0  4           0  0  0
    2.0261    3.5861    1.1418 C   0  0  0  0  0  4           0  0  0
   -0.0878   -0.6196    2.3040 C   0  0  0  0  0  4           0  0  0
   -2.0049   -0.0482    3.6371 C   0  0  0  0  0  4           0  0  0
    3.0943    1.0573    1.5953 C   0  0  0  0  0  4           0  0  0
    1.4987    2.4766    0.4777 C   0  0  0  0  0  4           0  0  0
   -0.7561   -0.6409    3.5257 C   0  0  0  0  0  4           0  0  0
    4.6016    4.4494    3.5413 C   0  0  0  0  0  4           0  0  0
    1.4504    0.0000   -0.0000 C   0  0  0  0  0  4           0  0  0
   -0.6995   -0.0313   -1.2815 C   0  0  0  0  0  4           0  0  0
   -1.5660   -1.2818   -1.4217 C   0  0  0  0  0  4           0  0  0
   -3.1740   -0.1910   -2.8724 C   0  0  0  0  0  4           0  0  0
   -3.0467   -2.5840   -2.7951 C   0  0  0  0  0  4           0  0  0
  1  5  1  0     0  0
  1 16  1  0     0  0
  2  6  2  0     0  0
  2  7  1  0     0  0
  3  6  1  0     0  0
  3 17  1  0     0  0
  3 18  1  0     0  0
  4 19  1  0     0  0
  4 20  1  0     0  0
  4 21  1  0     0  0
  5  9  2  0     0  0
  5 10  1  0     0  0
  6 11  1  0     0  0
  7 12  2  0     0  0
  8 13  2  0     0  0
  8 14  1  0     0  0
  8 17  1  0     0  0
  9 13  1  0     0  0
 10 14  2  0     0  0
 11 15  2  0     0  0
 12 15  1  0     0  0
 18 19  1  0     0  0
M  END
> <standard_type>
pIC50

> <# Confs.>
25

> <canonical_smiles>
CN(C)CCN(CC1=CC=C(OC)C=C1)C2=NC=CC=C2

> <standard_relation>
=

> <Publication_ID>
nan

> <predicted_activity_value>
nan

> <actual_activity_value>
-0.04139268515822508

> <Compound>
Pyrilamine

> <standard_units>
uM

> hash
3065239221153267079

$$$$
44
XXILIB    08252103503D 0   0.00000     0.00000

 21 22  0     1  0            999 V2000
    3.5698   -4.6230   -2.5349 O   0  0  0  0  0  2           0  0  0
   -0.1577   -0.5845    2.3130 N   0  0  0  0  0  3           0  0  0
    0.0000    0.0000    0.0000 N   0  0  1  0  0  3           0  0  0
   -2.2808   -1.3394   -2.7008 N   0  0  2  0  0  3           0  0  0
    3.0693   -3.4656   -2.0088 C   0  0  0  0  0  4           0  0  0
   -0.6900   -0.0000    1.2053 C   0  0  0  0  0  4           0  0  0
   -0.8790   -0.5469    3.4568 C   0  0  0  0  0  4           0  0  0
    2.0325   -1.2012   -0.6935 C   0  0  0  0  0  4           0  0  0
    2.8265   -2.2884   -2.7209 C   0  0  0  0  0  4           0  0  0
    2.7913   -3.5055   -0.6391 C   0  0  0  0  0  4           0  0  0
   -1.9424    0.6196    1.2422 C   0  0  0  0  0  4           0  0  0
   -2.1213    0.0482    3.5704 C   0  0  0  0  0  4           0  0  0
    2.3079   -1.1665   -2.0662 C   0  0  0  0  0  4           0  0  0
    2.2734   -2.3847    0.0132 C   0  0  0  0  0  4           0  0  0
   -2.6576    0.6409    2.4371 C   0  0  0  0  0  4           0  0  0
    3.8555   -4.5859   -3.9310 C   0  0  0  0  0  4           0  0  0
    1.4504    0.0000    0.0000 C   0  0  0  0  0  4           0  0  0
   -0.6995   -0.0313   -1.2815 C   0  0  0  0  0  4           0  0  0
   -1.5660   -1.2818   -1.4217 C   0  0  0  0  0  4           0  0  0
   -3.1740   -0.1910   -2.8724 C   0  0  0  0  0  4           0  0  0
   -3.0467   -2.5840   -2.7951 C   0  0  0  0  0  4           0  0  0
  1  5  1  0     0  0
  1 16  1  0     0  0
  2  6  2  0     0  0
  2  7  1  0     0  0
  3  6  1  0     0  0
  3 17  1  0     0  0
  3 18  1  0     0  0
  4 19  1  0     0  0
  4 20  1  0     0  0
  4 21  1  0     0  0
  5  9  2  0     0  0
  5 10  1  0     0  0
  6 11  1  0     0  0
  7 12  2  0     0  0
  8 13  2  0     0  0
  8 14  1  0     0  0
  8 17  1  0     0  0
  9 13  1  0     0  0
 10 14  2  0     0  0
 11 15  2  0     0  0
 12 15  1  0     0  0
 18 19  1  0     0  0
M  END
> <standard_type>
pIC50

> <# Confs.>
25

> <canonical_smiles>
CN(C)CCN(CC1=CC=C(OC)C=C1)C2=NC=CC=C2

> <standard_relation>
=

> <Publication_ID>
nan

> <predicted_activity_value>
nan

> <actual_activity_value>
-0.04139268515822508

> <Compound>
Pyrilamine

> <standard_units>
uM

> hash
3065239221153267079

$$$$
54
XXILIB    08252103503D 0   0.00000     0.00000

 33 34  0     1  0            999 V2000
   -2.6225    4.8725    1.0106 O   0  0  0  0  0  2           0  0  0
    2.9351    6.8496   -3.1614 O   0  0  0  0  0  2           0  0  0
   -4.0663    4.6846   -1.3001 O   0  0  0  0  0  2           0  0  0
    0.7357    8.2713   -2.3867 O   0  0  0  0  0  2           0  0  0
   -2.9705   -2.1285    0.0825 N   0  0  0  0  0  3           0  0  0
    2.2175    1.1220    0.6478 N   0  0  1  0  0  3           0  0  0
   -2.9485    3.6492    0.4959 C   0  0  0  0  0  4           0  0  0
    2.2466    6.4993   -2.0342 C   0  0  0  0  0  4           0  0  0
   -3.6774    3.5236   -0.6932 C   0  0  0  0  0  4           0  0  0
    1.1089    7.2031   -1.6203 C   0  0  0  0  0  4           0  0  0
   -2.7205    1.2273    0.6863 C   0  0  0  0  0  4           0  0  0
    2.0098    4.9108   -0.1972 C   0  0  0  0  0  4           0  0  0
   -2.4559    2.5214    1.1639 C   0  0  0  0  0  4           0  0  0
    2.6781    5.3566   -1.3492 C   0  0  0  0  0  4           0  0  0
   -3.9318    2.2419   -1.1848 C   0  0  0  0  0  4           0  0  0
    0.4282    6.7583   -0.4855 C   0  0  0  0  0  4           0  0  0
   -3.4570    1.1122   -0.5051 C   0  0  0  0  0  4           0  0  0
    0.8720    5.6271    0.2124 C   0  0  0  0  0  4           0  0  0
   -3.5762    5.4273    1.9125 C   0  0  0  0  0  4           0  0  0
    3.9838    7.7944   -2.9656 C   0  0  0  0  0  4           0  0  0
   -4.8058    4.5224   -2.5074 C   0  0  0  0  0  4           0  0  0
   -0.4253    8.9658   -1.9389 C   0  0  0  0  0  4           0  0  0
   -2.6208   -1.1865    0.6638 C   0  0  0  0  0  4           0  0  0
    1.8408    2.3781   -0.0039 C   0  0  0  0  0  4           0  0  0
    1.5350    0.0000    0.0000 C   0  0  0  0  0  4           0  0  0
    3.6730    0.9344    0.6272 C   0  0  0  0  0  4           0  0  0
   -2.1779   -0.0000    1.3949 C   0  0  2  0  0  4           0  0  0
    2.4565    3.6767    0.5356 C   0  0  0  0  0  4           0  0  0
   -2.7719   -0.0407    2.8414 C   0  0  1  0  0  4           0  0  0
    0.0000    0.0000   -0.0000 C   0  0  0  0  0  4           0  0  0
   -0.6450   -0.0000    1.3949 C   0  0  0  0  0  4           0  0  0
   -4.3067   -0.1154    2.8606 C   0  0  0  0  0  4           0  0  0
   -2.2059   -1.1840    3.7000 C   0  0  0  0  0  4           0  0  0
  1  7  1  0     0  0
  1 19  1  0     0  0
  2  8  1  0     0  0
  2 20  1  0     0  0
  3  9  1  0     0  0
  3 21  1  0     0  0
  4 10  1  0     0  0
  4 22  1  0     0  0
  5 23  3  0     0  0
  6 24  1  0     0  0
  6 25  1  0     0  0
  6 26  1  0     0  0
  7  9  2  0     0  0
  7 13  1  0     0  0
  8 10  2  0     0  0
  8 14  1  0     0  0
  9 15  1  0     0  0
 10 16  1  0     0  0
 11 13  2  0     0  0
 11 17  1  0     0  0
 11 27  1  0     0  0
 12 14  2  0     0  0
 12 18  1  0     0  0
 12 28  1  0     0  0
 15 17  2  0     0  0
 16 18  2  0     0  0
 23 27  1  0     0  0
 24 28  1  0     0  0
 25 30  1  0     0  0
 27 29  1  0     0  0
 27 31  1  0     0  0
 29 32  1  0     0  0
 29 33  1  0     0  0
 30 31  1  0     0  0
M  END
> <standard_type>
pIC50

> <# Confs.>
25

> <canonical_smiles>
N#CC(CCCN(C)CCC1=CC(OC)=C(OC)C=C1)(C2=CC(OC)=C(OC)C=C2)C(C)C

> <standard_relation>
=

> <Publication_ID>
nan

> <predicted_activity_value>
nan

> <actual_activity_value>
0.8446639625349381

> <Compound>
Verapamil

> <standard_units>
uM

> hash
10366669951309685448

$$$$
54
XXILIB    08252103503D 0   0.00000     0.00000

 33 34  0     1  0            999 V2000
   -2.6225    4.8725    1.0106 O   0  0  0  0  0  2           0  0  0
    3.1526    7.1646   -2.7294 O   0  0  0  0  0  2           0  0  0
   -4.0663    4.6846   -1.3001 O   0  0  0  0  0  2           0  0  0
    0.6711    7.5390   -3.8069 O   0  0  0  0  0  2           0  0  0
   -2.9705   -2.1285    0.0825 N   0  0  0  0  0  3           0  0  0
    2.2175    1.1220    0.6478 N   0  0  1  0  0  3           0  0  0
   -2.9485    3.6492    0.4959 C   0  0  0  0  0  4           0  0  0
    2.2215    6.1652   -2.6863 C   0  0  0  0  0  4           0  0  0
   -3.6774    3.5236   -0.6932 C   0  0  0  0  0  4           0  0  0
    0.9459    6.3258   -3.2413 C   0  0  0  0  0  4           0  0  0
   -2.7205    1.2273    0.6863 C   0  0  0  0  0  4           0  0  0
    1.7341    3.8536   -2.0755 C   0  0  0  0  0  4           0  0  0
   -2.4559    2.5214    1.1639 C   0  0  0  0  0  4           0  0  0
    2.6201    4.9420   -2.1334 C   0  0  0  0  0  4           0  0  0
   -3.9318    2.2419   -1.1848 C   0  0  0  0  0  4           0  0  0
    0.0634    5.2446   -3.2032 C   0  0  0  0  0  4           0  0  0
   -3.4570    1.1122   -0.5051 C   0  0  0  0  0  4           0  0  0
    0.4547    4.0269   -2.6310 C   0  0  0  0  0  4           0  0  0
   -1.3785    5.4077    0.5674 C   0  0  0  0  0  4           0  0  0
    3.1344    8.0620   -1.6226 C   0  0  0  0  0  4           0  0  0
   -4.8058    4.5224   -2.5074 C   0  0  0  0  0  4           0  0  0
   -0.6346    7.6701   -4.3625 C   0  0  0  0  0  4           0  0  0
   -2.6208   -1.1865    0.6638 C   0  0  0  0  0  4           0  0  0
    1.8408    2.3781   -0.0039 C   0  0  0  0  0  4           0  0  0
    1.5350   -0.0000    0.0000 C   0  0  0  0  0  4           0  0  0
    3.6730    0.9344    0.6272 C   0  0  0  0  0  4           0  0  0
   -2.1779   -0.0000    1.3949 C   0  0  2  0  0  4           0  0  0
    2.1581    2.5323   -1.4978 C   0  0  0  0  0  4           0  0  0
   -2.7719   -0.0407    2.8414 C   0  0  1  0  0  4           0  0  0
    0.0000    0.0000   -0.0000 C   0  0  0  0  0  4           0  0  0
   -0.6450   -0.0000    1.3949 C   0  0  0  0  0  4           0  0  0
   -4.3067   -0.1154    2.8606 C   0  0  0  0  0  4           0  0  0
   -2.2059   -1.1840    3.7000 C   0  0  0  0  0  4           0  0  0
  1  7  1  0     0  0
  1 19  1  0     0  0
  2  8  1  0     0  0
  2 20  1  0     0  0
  3  9  1  0     0  0
  3 21  1  0     0  0
  4 10  1  0     0  0
  4 22  1  0     0  0
  5 23  3  0     0  0
  6 24  1  0     0  0
  6 25  1  0     0  0
  6 26  1  0     0  0
  7  9  2  0     0  0
  7 13  1  0     0  0
  8 10  2  0     0  0
  8 14  1  0     0  0
  9 15  1  0     0  0
 10 16  1  0     0  0
 11 13  2  0     0  0
 11 17  1  0     0  0
 11 27  1  0     0  0
 12 14  2  0     0  0
 12 18  1  0     0  0
 12 28  1  0     0  0
 15 17  2  0     0  0
 16 18  2  0     0  0
 23 27  1  0     0  0
 24 28  1  0     0  0
 25 30  1  0     0  0
 27 29  1  0     0  0
 27 31  1  0     0  0
 29 32  1  0     0  0
 29 33  1  0     0  0
 30 31  1  0     0  0
M  END
> <standard_type>
pIC50

> <# Confs.>
25

> <canonical_smiles>
N#CC(CCCN(C)CCC1=CC(OC)=C(OC)C=C1)(C2=CC(OC)=C(OC)C=C2)C(C)C

> <standard_relation>
=

> <Publication_ID>
nan

> <predicted_activity_value>
nan

> <actual_activity_value>
0.8446639625349381

> <Compound>
Verapamil

> <standard_units>
uM

> hash
10366669951309685448

$$$$
54
XXILIB    08252103503D 0   0.00000     0.00000

 33 34  0     1  0            999 V2000
   -2.6225    4.8725    1.0106 O   0  0  0  0  0  2           0  0  0
   -1.2423    5.3981   -3.5445 O   0  0  0  0  0  2           0  0  0
   -4.0663    4.6846   -1.3001 O   0  0  0  0  0  2           0  0  0
    0.4251    7.5610   -3.5763 O   0  0  0  0  0  2           0  0  0
   -2.9705   -2.1285    0.0825 N   0  0  0  0  0  3           0  0  0
    2.2175    1.1220    0.6478 N   0  0  1  0  0  3           0  0  0
   -2.9485    3.6492    0.4959 C   0  0  0  0  0  4           0  0  0
    0.0456    5.2855   -3.1015 C   0  0  0  0  0  4           0  0  0
   -3.6774    3.5236   -0.6932 C   0  0  0  0  0  4           0  0  0
    0.9183    6.3807   -3.0954 C   0  0  0  0  0  4           0  0  0
   -2.7205    1.2273    0.6863 C   0  0  0  0  0  4           0  0  0
    1.7341    3.8536   -2.0755 C   0  0  0  0  0  4           0  0  0
   -2.4559    2.5214    1.1639 C   0  0  0  0  0  4           0  0  0
    0.4369    4.0470   -2.5781 C   0  0  0  0  0  4           0  0  0
   -3.9318    2.2419   -1.1848 C   0  0  0  0  0  4           0  0  0
    2.2048    6.2028   -2.5831 C   0  0  0  0  0  4           0  0  0
   -3.4570    1.1122   -0.5051 C   0  0  0  0  0  4           0  0  0
    2.6036    4.9579   -2.0786 C   0  0  0  0  0  4           0  0  0
   -1.3785    5.4077    0.5674 C   0  0  0  0  0  4           0  0  0
   -1.4320    5.1487   -4.9346 C   0  0  0  0  0  4           0  0  0
   -4.8058    4.5224   -2.5074 C   0  0  0  0  0  4           0  0  0
    1.3376    8.6553   -3.5565 C   0  0  0  0  0  4           0  0  0
   -2.6208   -1.1865    0.6638 C   0  0  0  0  0  4           0  0  0
    1.8408    2.3781   -0.0039 C   0  0  0  0  0  4           0  0  0
    1.5350    0.0000   -0.0000 C   0  0  0  0  0  4           0  0  0
    3.6730    0.9344    0.6272 C   0  0  0  0  0  4           0  0  0
   -2.1779   -0.0000    1.3949 C   0  0  2  0  0  4           0  0  0
    2.1581    2.5323   -1.4978 C   0  0  0  0  0  4           0  0  0
   -2.7719   -0.0407    2.8414 C   0  0  1  0  0  4           0  0  0
    0.0000    0.0000   -0.0000 C   0  0  0  0  0  4           0  0  0
   -0.6450   -0.0000    1.3949 C   0  0  0  0  0  4           0  0  0
   -4.3067   -0.1154    2.8606 C   0  0  0  0  0  4           0  0  0
   -2.2059   -1.1840    3.7000 C   0  0  0  0  0  4           0  0  0
  1  7  1  0     0  0
  1 19  1  0     0  0
  2  8  1  0     0  0
  2 20  1  0     0  0
  3  9  1  0     0  0
  3 21  1  0     0  0
  4 10  1  0     0  0
  4 22  1  0     0  0
  5 23  3  0     0  0
  6 24  1  0     0  0
  6 25  1  0     0  0
  6 26  1  0     0  0
  7  9  2  0     0  0
  7 13  1  0     0  0
  8 10  2  0     0  0
  8 14  1  0     0  0
  9 15  1  0     0  0
 10 16  1  0     0  0
 11 13  2  0     0  0
 11 17  1  0     0  0
 11 27  1  0     0  0
 12 14  2  0     0  0
 12 18  1  0     0  0
 12 28  1  0     0  0
 15 17  2  0     0  0
 16 18  2  0     0  0
 23 27  1  0     0  0
 24 28  1  0     0  0
 25 30  1  0     0  0
 27 29  1  0     0  0
 27 31  1  0     0  0
 29 32  1  0     0  0
 29 33  1  0     0  0
 30 31  1  0     0  0
M  END
> <standard_type>
pIC50

> <# Confs.>
25

> <canonical_smiles>
N#CC(CCCN(C)CCC1=CC(OC)=C(OC)C=C1)(C2=CC(OC)=C(OC)C=C2)C(C)C

> <standard_relation>
=

> <Publication_ID>
nan

> <predicted_activity_value>
nan

> <actual_activity_value>
0.8446639625349381

> <Compound>
Verapamil

> <standard_units>
uM

> hash
10366669951309685448

$$$$
54
XXILIB    08252103503D 0   0.00000     0.00000

 33 34  0     1  0            999 V2000
   -4.7933    2.0494   -2.2171 O   0  0  0  0  0  2           0  0  0
   -0.5571    7.5068    0.0746 O   0  0  0  0  0  2           0  0  0
   -4.3815    4.5718   -1.2542 O   0  0  0  0  0  2           0  0  0
    0.7845    8.4549   -2.1072 O   0  0  0  0  0  2           0  0  0
   -2.9705   -2.1285    0.0825 N   0  0  0  0  0  3           0  0  0
    2.2175    1.1220    0.6478 N   0  0  1  0  0  3           0  0  0
   -4.0151    2.2496   -1.1117 C   0  0  0  0  0  4           0  0  0
    0.5073    6.8185   -0.4361 C   0  0  0  0  0  4           0  0  0
   -3.7969    3.5305   -0.5897 C   0  0  0  0  0  4           0  0  0
    1.2205    7.2875   -1.5462 C   0  0  0  0  0  4           0  0  0
   -2.7205    1.2273    0.6863 C   0  0  0  0  0  4           0  0  0
    2.0098    4.9108   -0.1972 C   0  0  0  0  0  4           0  0  0
   -3.5064    1.1125   -0.4721 C   0  0  0  0  0  4           0  0  0
    0.9081    5.6620    0.2441 C   0  0  0  0  0  4           0  0  0
   -3.0304    3.6539    0.5707 C   0  0  0  0  0  4           0  0  0
    2.3269    6.5565   -1.9829 C   0  0  0  0  0  4           0  0  0
   -2.5035    2.5177    1.1992 C   0  0  0  0  0  4           0  0  0
    2.7156    5.3876   -1.3151 C   0  0  0  0  0  4           0  0  0
   -4.1032    2.0907   -3.4632 C   0  0  0  0  0  4           0  0  0
   -0.2379    8.4598    1.0849 C   0  0  0  0  0  4           0  0  0
   -4.1404    5.8613   -0.6979 C   0  0  0  0  0  4           0  0  0
    1.5312    8.9048   -3.2345 C   0  0  0  0  0  4           0  0  0
   -2.6208   -1.1865    0.6638 C   0  0  0  0  0  4           0  0  0
    1.8408    2.3781   -0.0039 C   0  0  0  0  0  4           0  0  0
    1.5350    0.0000   -0.0000 C   0  0  0  0  0  4           0  0  0
    3.6730    0.9344    0.6272 C   0  0  0  0  0  4           0  0  0
   -2.1779   -0.0000    1.3949 C   0  0  2  0  0  4           0  0  0
    2.4565    3.6767    0.5356 C   0  0  0  0  0  4           0  0  0
   -2.7719   -0.0407    2.8414 C   0  0  1  0  0  4           0  0  0
    0.0000    0.0000   -0.0000 C   0  0  0  0  0  4           0  0  0
   -0.6450   -0.0000    1.3949 C   0  0  0  0  0  4           0  0  0
   -4.3067   -0.1154    2.8606 C   0  0  0  0  0  4           0  0  0
   -2.2059   -1.1840    3.7000 C   0  0  0  0  0  4           0  0  0
  1  7  1  0     0  0
  1 19  1  0     0  0
  2  8  1  0     0  0
  2 20  1  0     0  0
  3  9  1  0     0  0
  3 21  1  0     0  0
  4 10  1  0     0  0
  4 22  1  0     0  0
  5 23  3  0     0  0
  6 24  1  0     0  0
  6 25  1  0     0  0
  6 26  1  0     0  0
  7  9  2  0     0  0
  7 13  1  0     0  0
  8 10  2  0     0  0
  8 14  1  0     0  0
  9 15  1  0     0  0
 10 16  1  0     0  0
 11 13  2  0     0  0
 11 17  1  0     0  0
 11 27  1  0     0  0
 12 14  2  0     0  0
 12 18  1  0     0  0
 12 28  1  0     0  0
 15 17  2  0     0  0
 16 18  2  0     0  0
 23 27  1  0     0  0
 24 28  1  0     0  0
 25 30  1  0     0  0
 27 29  1  0     0  0
 27 31  1  0     0  0
 29 32  1  0     0  0
 29 33  1  0     0  0
 30 31  1  0     0  0
M  END
> <standard_type>
pIC50

> <# Confs.>
25

> <canonical_smiles>
N#CC(CCCN(C)CCC1=CC(OC)=C(OC)C=C1)(C2=CC(OC)=C(OC)C=C2)C(C)C

> <standard_relation>
=

> <Publication_ID>
nan

> <predicted_activity_value>
nan

> <actual_activity_value>
0.8446639625349381

> <Compound>
Verapamil

> <standard_units>
uM

> hash
10366669951309685448

$$$$
54
XXILIB    08252103503D 0   0.00000     0.00000

 33 34  0     1  0            999 V2000
   -2.6225    4.8725    1.0106 O   0  0  0  0  0  2           0  0  0
    8.3204   -1.4650   -1.3253 O   0  0  0  0  0  2           0  0  0
   -4.0663    4.6846   -1.3001 O   0  0  0  0  0  2           0  0  0
    9.9800   -0.3783    0.5519 O   0  0  0  0  0  2           0  0  0
   -2.9705   -2.1285    0.0825 N   0  0  0  0  0  3           0  0  0
    2.2175    1.1220    0.6478 N   0  0  1  0  0  3           0  0  0
   -2.9485    3.6492    0.4959 C   0  0  0  0  0  4           0  0  0
    7.8083   -0.9185   -0.1823 C   0  0  0  0  0  4           0  0  0
   -3.6774    3.5236   -0.6932 C   0  0  0  0  0  4           0  0  0
    8.6350   -0.3441    0.7912 C   0  0  0  0  0  4           0  0  0
   -2.7205    1.2273    0.6863 C   0  0  0  0  0  4           0  0  0
    5.8045   -0.3151    1.0726 C   0  0  0  0  0  4           0  0  0
   -2.4559    2.5214    1.1639 C   0  0  0  0  0  4           0  0  0
    6.4139   -0.8843   -0.0576 C   0  0  0  0  0  4           0  0  0
   -3.9318    2.2419   -1.1848 C   0  0  0  0  0  4           0  0  0
    8.0380    0.2386    1.9107 C   0  0  0  0  0  4           0  0  0
   -3.4570    1.1122   -0.5051 C   0  0  0  0  0  4           0  0  0
    6.6434    0.2543    2.0459 C   0  0  0  0  0  4           0  0  0
   -3.5762    5.4273    1.9125 C   0  0  0  0  0  4           0  0  0
    8.6472   -2.8497   -1.2450 C   0  0  0  0  0  4           0  0  0
   -4.8058    4.5224   -2.5074 C   0  0  0  0  0  4           0  0  0
   10.7933    0.2142    1.5609 C   0  0  0  0  0  4           0  0  0
   -2.6208   -1.1865    0.6638 C   0  0  0  0  0  4           0  0  0
    3.6728    0.9811    0.5664 C   0  0  0  0  0  4           0  0  0
    1.5350   -0.0000   -0.0000 C   0  0  0  0  0  4           0  0  0
    1.8141    2.3990    0.0483 C   0  0  0  0  0  4           0  0  0
   -2.1779   -0.0000    1.3949 C   0  0  2  0  0  4           0  0  0
    4.3084   -0.2602    1.2078 C   0  0  0  0  0  4           0  0  0
   -2.7719   -0.0407    2.8414 C   0  0  1  0  0  4           0  0  0
    0.0000    0.0000   -0.0000 C   0  0  0  0  0  4           0  0  0
   -0.6450   -0.0000    1.3949 C   0  0  0  0  0  4           0  0  0
   -4.3067   -0.1154    2.8606 C   0  0  0  0  0  4           0  0  0
   -2.2059   -1.1840    3.7000 C   0  0  0  0  0  4           0  0  0
  1  7  1  0     0  0
  1 19  1  0     0  0
  2  8  1  0     0  0
  2 20  1  0     0  0
  3  9  1  0     0  0
  3 21  1  0     0  0
  4 10  1  0     0  0
  4 22  1  0     0  0
  5 23  3  0     0  0
  6 24  1  0     0  0
  6 25  1  0     0  0
  6 26  1  0     0  0
  7  9  2  0     0  0
  7 13  1  0     0  0
  8 10  2  0     0  0
  8 14  1  0     0  0
  9 15  1  0     0  0
 10 16  1  0     0  0
 11 13  2  0     0  0
 11 17  1  0     0  0
 11 27  1  0     0  0
 12 14  2  0     0  0
 12 18  1  0     0  0
 12 28  1  0     0  0
 15 17  2  0     0  0
 16 18  2  0     0  0
 23 27  1  0     0  0
 24 28  1  0     0  0
 25 30  1  0     0  0
 27 29  1  0     0  0
 27 31  1  0     0  0
 29 32  1  0     0  0
 29 33  1  0     0  0
 30 31  1  0     0  0
M  END
> <standard_type>
pIC50

> <# Confs.>
25

> <canonical_smiles>
N#CC(CCCN(C)CCC1=CC(OC)=C(OC)C=C1)(C2=CC(OC)=C(OC)C=C2)C(C)C

> <standard_relation>
=

> <Publication_ID>
nan

> <predicted_activity_value>
nan

> <actual_activity_value>
0.8446639625349381

> <Compound>
Verapamil

> <standard_units>
uM

> hash
10366669951309685448

$$$$
54
XXILIB    08252103503D 0   0.00000     0.00000

 33 34  0     1  0            999 V2000
   -4.7933    2.0494   -2.2171 O   0  0  0  0  0  2           0  0  0
   -1.2423    5.3981   -3.5445 O   0  0  0  0  0  2           0  0  0
   -4.3815    4.5718   -1.2542 O   0  0  0  0  0  2           0  0  0
    0.4251    7.5610   -3.5763 O   0  0  0  0  0  2           0  0  0
   -2.9705   -2.1285    0.0825 N   0  0  0  0  0  3           0  0  0
    2.2175    1.1220    0.6478 N   0  0  1  0  0  3           0  0  0
   -4.0151    2.2496   -1.1117 C   0  0  0  0  0  4           0  0  0
    0.0456    5.2855   -3.1015 C   0  0  0  0  0  4           0  0  0
   -3.7969    3.5305   -0.5897 C   0  0  0  0  0  4           0  0  0
    0.9183    6.3807   -3.0954 C   0  0  0  0  0  4           0  0  0
   -2.7205    1.2273    0.6863 C   0  0  0  0  0  4           0  0  0
    1.7341    3.8536   -2.0755 C   0  0  0  0  0  4           0  0  0
   -3.5064    1.1125   -0.4721 C   0  0  0  0  0  4           0  0  0
    0.4369    4.0470   -2.5781 C   0  0  0  0  0  4           0  0  0
   -3.0304    3.6539    0.5707 C   0  0  0  0  0  4           0  0  0
    2.2048    6.2028   -2.5831 C   0  0  0  0  0  4           0  0  0
   -2.5035    2.5177    1.1992 C   0  0  0  0  0  4           0  0  0
    2.6036    4.9579   -2.0786 C   0  0  0  0  0  4           0  0  0
   -4.1032    2.0907   -3.4632 C   0  0  0  0  0  4           0  0  0
   -1.4320    5.1487   -4.9346 C   0  0  0  0  0  4           0  0  0
   -4.1404    5.8613   -0.6979 C   0  0  0  0  0  4           0  0  0
    1.3376    8.6553   -3.5565 C   0  0  0  0  0  4           0  0  0
   -2.6208   -1.1865    0.6638 C   0  0  0  0  0  4           0  0  0
    1.8408    2.3781   -0.0039 C   0  0  0  0  0  4           0  0  0
    1.5350    0.0000   -0.0000 C   0  0  0  0  0  4           0  0  0
    3.6730    0.9344    0.6272 C   0  0  0  0  0  4           0  0  0
   -2.1779   -0.0000    1.3949 C   0  0  2  0  0  4           0  0  0
    2.1581    2.5323   -1.4978 C   0  0  0  0  0  4           0  0  0
   -2.7719   -0.0407    2.8414 C   0  0  1  0  0  4           0  0  0
    0.0000    0.0000   -0.0000 C   0  0  0  0  0  4           0  0  0
   -0.6450   -0.0000    1.3949 C   0  0  0  0  0  4           0  0  0
   -4.3067   -0.1154    2.8606 C   0  0  0  0  0  4           0  0  0
   -2.2059   -1.1840    3.7000 C   0  0  0  0  0  4           0  0  0
  1  7  1  0     0  0
  1 19  1  0     0  0
  2  8  1  0     0  0
  2 20  1  0     0  0
  3  9  1  0     0  0
  3 21  1  0     0  0
  4 10  1  0     0  0
  4 22  1  0     0  0
  5 23  3  0     0  0
  6 24  1  0     0  0
  6 25  1  0     0  0
  6 26  1  0     0  0
  7  9  2  0     0  0
  7 13  1  0     0  0
  8 10  2  0     0  0
  8 14  1  0     0  0
  9 15  1  0     0  0
 10 16  1  0     0  0
 11 13  2  0     0  0
 11 17  1  0     0  0
 11 27  1  0     0  0
 12 14  2  0     0  0
 12 18  1  0     0  0
 12 28  1  0     0  0
 15 17  2  0     0  0
 16 18  2  0     0  0
 23 27  1  0     0  0
 24 28  1  0     0  0
 25 30  1  0     0  0
 27 29  1  0     0  0
 27 31  1  0     0  0
 29 32  1  0     0  0
 29 33  1  0     0  0
 30 31  1  0     0  0
M  END
> <standard_type>
pIC50

> <# Confs.>
25

> <canonical_smiles>
N#CC(CCCN(C)CCC1=CC(OC)=C(OC)C=C1)(C2=CC(OC)=C(OC)C=C2)C(C)C

> <standard_relation>
=

> <Publication_ID>
nan

> <predicted_activity_value>
nan

> <actual_activity_value>
0.8446639625349381

> <Compound>
Verapamil

> <standard_units>
uM

> hash
10366669951309685448

$$$$
54
XXILIB    08252103503D 0   0.00000     0.00000

 33 34  0     1  0            999 V2000
   -2.6225    4.8725    1.0106 O   0  0  0  0  0  2           0  0  0
    8.7860    0.6330    2.9736 O   0  0  0  0  0  2           0  0  0
   -4.0663    4.6846   -1.3001 O   0  0  0  0  0  2           0  0  0
    9.9991   -0.5591    0.8368 O   0  0  0  0  0  2           0  0  0
   -2.9705   -2.1285    0.0825 N   0  0  0  0  0  3           0  0  0
    2.2175    1.1220    0.6478 N   0  0  1  0  0  3           0  0  0
   -2.9485    3.6492    0.4959 C   0  0  0  0  0  4           0  0  0
    8.0391    0.1328    1.9444 C   0  0  0  0  0  4           0  0  0
   -3.6774    3.5236   -0.6932 C   0  0  0  0  0  4           0  0  0
    8.6341   -0.4939    0.8424 C   0  0  0  0  0  4           0  0  0
   -2.7205    1.2273    0.6863 C   0  0  0  0  0  4           0  0  0
    5.8045   -0.3151    1.0726 C   0  0  0  0  0  4           0  0  0
   -2.4559    2.5214    1.1639 C   0  0  0  0  0  4           0  0  0
    6.6462    0.2008    2.0716 C   0  0  0  0  0  4           0  0  0
   -3.9318    2.2419   -1.1848 C   0  0  0  0  0  4           0  0  0
    7.8056   -1.0242   -0.1483 C   0  0  0  0  0  4           0  0  0
   -3.4570    1.1122   -0.5051 C   0  0  0  0  0  4           0  0  0
    6.4119   -0.9376   -0.0314 C   0  0  0  0  0  4           0  0  0
   -3.5762    5.4273    1.9125 C   0  0  0  0  0  4           0  0  0
    9.1928    1.9908    2.8269 C   0  0  0  0  0  4           0  0  0
   -4.8058    4.5224   -2.5074 C   0  0  0  0  0  4           0  0  0
   10.5733   -1.2024   -0.2977 C   0  0  0  0  0  4           0  0  0
   -2.6208   -1.1865    0.6638 C   0  0  0  0  0  4           0  0  0
    3.6728    0.9811    0.5664 C   0  0  0  0  0  4           0  0  0
    1.5350    0.0000   -0.0000 C   0  0  0  0  0  4           0  0  0
    1.8141    2.3990    0.0483 C   0  0  0  0  0  4           0  0  0
   -2.1779   -0.0000    1.3949 C   0  0  2  0  0  4           0  0  0
    4.3084   -0.2602    1.2078 C   0  0  0  0  0  4           0  0  0
   -2.7719   -0.0407    2.8414 C   0  0  1  0  0  4           0  0  0
    0.0000    0.0000   -0.0000 C   0  0  0  0  0  4           0  0  0
   -0.6450   -0.0000    1.3949 C   0  0  0  0  0  4           0  0  0
   -4.3067   -0.1154    2.8606 C   0  0  0  0  0  4           0  0  0
   -2.2059   -1.1840    3.7000 C   0  0  0  0  0  4           0  0  0
  1  7  1  0     0  0
  1 19  1  0     0  0
  2  8  1  0     0  0
  2 20  1  0     0  0
  3  9  1  0     0  0
  3 21  1  0     0  0
  4 10  1  0     0  0
  4 22  1  0     0  0
  5 23  3  0     0  0
  6 24  1  0     0  0
  6 25  1  0     0  0
  6 26  1  0     0  0
  7  9  2  0     0  0
  7 13  1  0     0  0
  8 10  2  0     0  0
  8 14  1  0     0  0
  9 15  1  0     0  0
 10 16  1  0     0  0
 11 13  2  0     0  0
 11 17  1  0     0  0
 11 27  1  0     0  0
 12 14  2  0     0  0
 12 18  1  0     0  0
 12 28  1  0     0  0
 15 17  2  0     0  0
 16 18  2  0     0  0
 23 27  1  0     0  0
 24 28  1  0     0  0
 25 30  1  0     0  0
 27 29  1  0     0  0
 27 31  1  0     0  0
 29 32  1  0     0  0
 29 33  1  0     0  0
 30 31  1  0     0  0
M  END
> <standard_type>
pIC50

> <# Confs.>
25

> <canonical_smiles>
N#CC(CCCN(C)CCC1=CC(OC)=C(OC)C=C1)(C2=CC(OC)=C(OC)C=C2)C(C)C

> <standard_relation>
=

> <Publication_ID>
nan

> <predicted_activity_value>
nan

> <actual_activity_value>
0.8446639625349381

> <Compound>
Verapamil

> <standard_units>
uM

> hash
10366669951309685448

$$$$
54
XXILIB    08252103503D 0   0.00000     0.00000

 33 34  0     1  0            999 V2000
   -2.6225    4.8725    1.0106 O   0  0  0  0  0  2           0  0  0
    8.7045   -2.3350   -1.4206 O   0  0  0  0  0  2           0  0  0
   -4.0663    4.6846   -1.3001 O   0  0  0  0  0  2           0  0  0
   10.1193   -0.9285    0.4447 O   0  0  0  0  0  2           0  0  0
   -2.9705   -2.1285    0.0825 N   0  0  0  0  0  3           0  0  0
    2.2175   -1.1220    0.6478 N   0  0  1  0  0  3           0  0  0
   -2.9485    3.6492    0.4959 C   0  0  0  0  0  4           0  0  0
    8.1032   -1.9165   -0.2670 C   0  0  0  0  0  4           0  0  0
   -3.6774    3.5236   -0.6932 C   0  0  0  0  0  4           0  0  0
    8.8014   -1.1837    0.7008 C   0  0  0  0  0  4           0  0  0
   -2.7205    1.2273    0.6863 C   0  0  0  0  0  4           0  0  0
    6.0341   -1.7617    1.0171 C   0  0  0  0  0  4           0  0  0
   -2.4559    2.5214    1.1639 C   0  0  0  0  0  4           0  0  0
    6.7356   -2.1817   -0.1250 C   0  0  0  0  0  4           0  0  0
   -3.9318    2.2419   -1.1848 C   0  0  0  0  0  4           0  0  0
    8.1091   -0.7478    1.8322 C   0  0  0  0  0  4           0  0  0
   -3.4570    1.1122   -0.5051 C   0  0  0  0  0  4           0  0  0
    6.7453   -1.0312    1.9845 C   0  0  0  0  0  4           0  0  0
   -3.5762    5.4273    1.9125 C   0  0  0  0  0  4           0  0  0
    9.3206   -3.6183   -1.3553 C   0  0  0  0  0  4           0  0  0
   -4.8058    4.5224   -2.5074 C   0  0  0  0  0  4           0  0  0
   10.8010   -0.1812    1.4484 C   0  0  0  0  0  4           0  0  0
   -2.6208   -1.1865    0.6638 C   0  0  0  0  0  4           0  0  0
    3.6681   -0.9483    0.5475 C   0  0  0  0  0  4           0  0  0
    1.5350   -0.0000   -0.0000 C   0  0  0  0  0  4           0  0  0
    1.7990   -2.4008    0.0618 C   0  0  0  0  0  4           0  0  0
   -2.1779   -0.0000    1.3949 C   0  0  2  0  0  4           0  0  0
    4.5629   -2.0284    1.1711 C   0  0  0  0  0  4           0  0  0
   -2.7719   -0.0407    2.8414 C   0  0  1  0  0  4           0  0  0
    0.0000    0.0000   -0.0000 C   0  0  0  0  0  4           0  0  0
   -0.6450   -0.0000    1.3949 C   0  0  0  0  0  4           0  0  0
   -4.3067   -0.1154    2.8606 C   0  0  0  0  0  4           0  0  0
   -2.2059   -1.1840    3.7000 C   0  0  0  0  0  4           0  0  0
  1  7  1  0     0  0
  1 19  1  0     0  0
  2  8  1  0     0  0
  2 20  1  0     0  0
  3  9  1  0     0  0
  3 21  1  0     0  0
  4 10  1  0     0  0
  4 22  1  0     0  0
  5 23  3  0     0  0
  6 24  1  0     0  0
  6 25  1  0     0  0
  6 26  1  0     0  0
  7  9  2  0     0  0
  7 13  1  0     0  0
  8 10  2  0     0  0
  8 14  1  0     0  0
  9 15  1  0     0  0
 10 16  1  0     0  0
 11 13  2  0     0  0
 11 17  1  0     0  0
 11 27  1  0     0  0
 12 14  2  0     0  0
 12 18  1  0     0  0
 12 28  1  0     0  0
 15 17  2  0     0  0
 16 18  2  0     0  0
 23 27  1  0     0  0
 24 28  1  0     0  0
 25 30  1  0     0  0
 27 29  1  0     0  0
 27 31  1  0     0  0
 29 32  1  0     0  0
 29 33  1  0     0  0
 30 31  1  0     0  0
M  END
> <standard_type>
pIC50

> <# Confs.>
25

> <canonical_smiles>
N#CC(CCCN(C)CCC1=CC(OC)=C(OC)C=C1)(C2=CC(OC)=C(OC)C=C2)C(C)C

> <standard_relation>
=

> <Publication_ID>
nan

> <predicted_activity_value>
nan

> <actual_activity_value>
0.8446639625349381

> <Compound>
Verapamil

> <standard_units>
uM

> hash
10366669951309685448

$$$$
54
XXILIB    08252103503D 0   0.00000     0.00000

 33 34  0     1  0            999 V2000
   -4.7933    2.0494   -2.2171 O   0  0  0  0  0  2           0  0  0
    3.1526    7.1646   -2.7294 O   0  0  0  0  0  2           0  0  0
   -4.3815    4.5718   -1.2542 O   0  0  0  0  0  2           0  0  0
    0.6711    7.5390   -3.8069 O   0  0  0  0  0  2           0  0  0
   -2.9705   -2.1285    0.0825 N   0  0  0  0  0  3           0  0  0
    2.2175    1.1220    0.6478 N   0  0  1  0  0  3           0  0  0
   -4.0151    2.2496   -1.1117 C   0  0  0  0  0  4           0  0  0
    2.2215    6.1652   -2.6863 C   0  0  0  0  0  4           0  0  0
   -3.7969    3.5305   -0.5897 C   0  0  0  0  0  4           0  0  0
    0.9459    6.3258   -3.2413 C   0  0  0  0  0  4           0  0  0
   -2.7205    1.2273    0.6863 C   0  0  0  0  0  4           0  0  0
    1.7341    3.8536   -2.0755 C   0  0  0  0  0  4           0  0  0
   -3.5064    1.1125   -0.4721 C   0  0  0  0  0  4           0  0  0
    2.6201    4.9420   -2.1334 C   0  0  0  0  0  4           0  0  0
   -3.0304    3.6539    0.5707 C   0  0  0  0  0  4           0  0  0
    0.0634    5.2446   -3.2032 C   0  0  0  0  0  4           0  0  0
   -2.5035    2.5177    1.1992 C   0  0  0  0  0  4           0  0  0
    0.4547    4.0269   -2.6310 C   0  0  0  0  0  4           0  0  0
   -6.1768    1.8296   -1.9560 C   0  0  0  0  0  4           0  0  0
    3.1344    8.0620   -1.6226 C   0  0  0  0  0  4           0  0  0
   -4.1404    5.8613   -0.6979 C   0  0  0  0  0  4           0  0  0
   -0.6346    7.6701   -4.3625 C   0  0  0  0  0  4           0  0  0
   -2.6208   -1.1865    0.6638 C   0  0  0  0  0  4           0  0  0
    1.8408    2.3781   -0.0039 C   0  0  0  0  0  4           0  0  0
    1.5350   -0.0000    0.0000 C   0  0  0  0  0  4           0  0  0
    3.6730    0.9344    0.6272 C   0  0  0  0  0  4           0  0  0
   -2.1779   -0.0000    1.3949 C   0  0  2  0  0  4           0  0  0
    2.1581    2.5323   -1.4978 C   0  0  0  0  0  4           0  0  0
   -2.7719   -0.0407    2.8414 C   0  0  1  0  0  4           0  0  0
    0.0000    0.0000   -0.0000 C   0  0  0  0  0  4           0  0  0
   -0.6450   -0.0000    1.3949 C   0  0  0  0  0  4           0  0  0
   -4.3067   -0.1154    2.8606 C   0  0  0  0  0  4           0  0  0
   -2.2059   -1.1840    3.7000 C   0  0  0  0  0  4           0  0  0
  1  7  1  0     0  0
  1 19  1  0     0  0
  2  8  1  0     0  0
  2 20  1  0     0  0
  3  9  1  0     0  0
  3 21  1  0     0  0
  4 10  1  0     0  0
  4 22  1  0     0  0
  5 23  3  0     0  0
  6 24  1  0     0  0
  6 25  1  0     0  0
  6 26  1  0     0  0
  7  9  2  0     0  0
  7 13  1  0     0  0
  8 10  2  0     0  0
  8 14  1  0     0  0
  9 15  1  0     0  0
 10 16  1  0     0  0
 11 13  2  0     0  0
 11 17  1  0     0  0
 11 27  1  0     0  0
 12 14  2  0     0  0
 12 18  1  0     0  0
 12 28  1  0     0  0
 15 17  2  0     0  0
 16 18  2  0     0  0
 23 27  1  0     0  0
 24 28  1  0     0  0
 25 30  1  0     0  0
 27 29  1  0     0  0
 27 31  1  0     0  0
 29 32  1  0     0  0
 29 33  1  0     0  0
 30 31  1  0     0  0
M  END
> <standard_type>
pIC50

> <# Confs.>
25

> <canonical_smiles>
N#CC(CCCN(C)CCC1=CC(OC)=C(OC)C=C1)(C2=CC(OC)=C(OC)C=C2)C(C)C

> <standard_relation>
=

> <Publication_ID>
nan

> <predicted_activity_value>
nan

> <actual_activity_value>
0.8446639625349381

> <Compound>
Verapamil

> <standard_units>
uM

> hash
10366669951309685448

$$$$
54
XXILIB    08252103503D 0   0.00000     0.00000

 33 34  0     1  0            999 V2000
   -5.6300    2.2034   -1.3096 O   0  0  0  0  0  2           0  0  0
   -0.5571    7.5068    0.0746 O   0  0  0  0  0  2           0  0  0
   -4.3643    4.6202   -1.1834 O   0  0  0  0  0  2           0  0  0
    0.7845    8.4549   -2.1072 O   0  0  0  0  0  2           0  0  0
   -2.9711   -2.1278    0.0818 N   0  0  0  0  0  3           0  0  0
    2.2175    1.1220    0.6478 N   0  0  1  0  0  3           0  0  0
   -4.4321    2.3242   -0.6633 C   0  0  0  0  0  4           0  0  0
    0.5073    6.8185   -0.4361 C   0  0  0  0  0  4           0  0  0
   -3.7671    3.5533   -0.5730 C   0  0  0  0  0  4           0  0  0
    1.2205    7.2875   -1.5462 C   0  0  0  0  0  4           0  0  0
   -2.7205    1.2273    0.6863 C   0  0  0  0  0  4           0  0  0
    2.0098    4.9108   -0.1972 C   0  0  0  0  0  4           0  0  0
   -3.9312    1.1832   -0.0242 C   0  0  0  0  0  4           0  0  0
    0.9081    5.6620    0.2441 C   0  0  0  0  0  4           0  0  0
   -2.5710    3.6110    0.1447 C   0  0  0  0  0  4           0  0  0
    2.3269    6.5565   -1.9829 C   0  0  0  0  0  4           0  0  0
   -2.0587    2.4646    0.7666 C   0  0  0  0  0  4           0  0  0
    2.7156    5.3876   -1.3151 C   0  0  0  0  0  4           0  0  0
   -5.5443    1.8952   -2.6983 C   0  0  0  0  0  4           0  0  0
   -0.2379    8.4598    1.0849 C   0  0  0  0  0  4           0  0  0
   -3.6628    5.8557   -1.0733 C   0  0  0  0  0  4           0  0  0
    1.5312    8.9048   -3.2345 C   0  0  0  0  0  4           0  0  0
   -2.6208   -1.1865    0.6638 C   0  0  0  0  0  4           0  0  0
    1.8408    2.3781   -0.0039 C   0  0  0  0  0  4           0  0  0
    1.5350    0.0000   -0.0000 C   0  0  0  0  0  4           0  0  0
    3.6730    0.9344    0.6272 C   0  0  0  0  0  4           0  0  0
   -2.1779   -0.0000    1.3949 C   0  0  2  0  0  4           0  0  0
    2.4565    3.6767    0.5356 C   0  0  0  0  0  4           0  0  0
   -2.7719   -0.0407    2.8414 C   0  0  1  0  0  4           0  0  0
    0.0000    0.0000   -0.0000 C   0  0  0  0  0  4           0  0  0
   -0.6450   -0.0000    1.3949 C   0  0  0  0  0  4           0  0  0
   -2.2882   -1.2497    3.6575 C   0  0  0  0  0  4           0  0  0
   -2.5054    1.2427    3.6453 C   0  0  0  0  0  4           0  0  0
  1  7  1  0     0  0
  1 19  1  0     0  0
  2  8  1  0     0  0
  2 20  1  0     0  0
  3  9  1  0     0  0
  3 21  1  0     0  0
  4 10  1  0     0  0
  4 22  1  0     0  0
  5 23  3  0     0  0
  6 24  1  0     0  0
  6 25  1  0     0  0
  6 26  1  0     0  0
  7  9  2  0     0  0
  7 13  1  0     0  0
  8 10  2  0     0  0
  8 14  1  0     0  0
  9 15  1  0     0  0
 10 16  1  0     0  0
 11 13  2  0     0  0
 11 17  1  0     0  0
 11 27  1  0     0  0
 12 14  2  0     0  0
 12 18  1  0     0  0
 12 28  1  0     0  0
 15 17  2  0     0  0
 16 18  2  0     0  0
 23 27  1  0     0  0
 24 28  1  0     0  0
 25 30  1  0     0  0
 27 29  1  0     0  0
 27 31  1  0     0  0
 29 32  1  0     0  0
 29 33  1  0     0  0
 30 31  1  0     0  0
M  END
> <standard_type>
pIC50

> <# Confs.>
25

> <canonical_smiles>
N#CC(CCCN(C)CCC1=CC(OC)=C(OC)C=C1)(C2=CC(OC)=C(OC)C=C2)C(C)C

> <standard_relation>
=

> <Publication_ID>
nan

> <predicted_activity_value>
nan

> <actual_activity_value>
0.8446639625349381

> <Compound>
Verapamil

> <standard_units>
uM

> hash
10366669951309685448

$$$$
54
XXILIB    08252103503D 0   0.00000     0.00000

 33 34  0     1  0            999 V2000
   -5.6300    2.2034   -1.3096 O   0  0  0  0  0  2           0  0  0
   -0.5571    7.5068    0.0746 O   0  0  0  0  0  2           0  0  0
   -4.3643    4.6202   -1.1834 O   0  0  0  0  0  2           0  0  0
    0.7845    8.4549   -2.1072 O   0  0  0  0  0  2           0  0  0
   -2.9705   -2.1285    0.0825 N   0  0  0  0  0  3           0  0  0
    2.2175    1.1220    0.6478 N   0  0  1  0  0  3           0  0  0
   -4.4321    2.3242   -0.6633 C   0  0  0  0  0  4           0  0  0
    0.5073    6.8185   -0.4361 C   0  0  0  0  0  4           0  0  0
   -3.7671    3.5533   -0.5730 C   0  0  0  0  0  4           0  0  0
    1.2205    7.2875   -1.5462 C   0  0  0  0  0  4           0  0  0
   -2.7205    1.2273    0.6863 C   0  0  0  0  0  4           0  0  0
    2.0098    4.9108   -0.1972 C   0  0  0  0  0  4           0  0  0
   -3.9312    1.1832   -0.0242 C   0  0  0  0  0  4           0  0  0
    0.9081    5.6620    0.2441 C   0  0  0  0  0  4           0  0  0
   -2.5710    3.6110    0.1447 C   0  0  0  0  0  4           0  0  0
    2.3269    6.5565   -1.9829 C   0  0  0  0  0  4           0  0  0
   -2.0587    2.4646    0.7666 C   0  0  0  0  0  4           0  0  0
    2.7156    5.3876   -1.3151 C   0  0  0  0  0  4           0  0  0
   -5.5443    1.8952   -2.6983 C   0  0  0  0  0  4           0  0  0
   -0.2379    8.4598    1.0849 C   0  0  0  0  0  4           0  0  0
   -3.6628    5.8557   -1.0733 C   0  0  0  0  0  4           0  0  0
    1.5312    8.9048   -3.2345 C   0  0  0  0  0  4           0  0  0
   -2.6208   -1.1865    0.6638 C   0  0  0  0  0  4           0  0  0
    1.8408    2.3781   -0.0039 C   0  0  0  0  0  4           0  0  0
    1.5350    0.0000   -0.0000 C   0  0  0  0  0  4           0  0  0
    3.6730    0.9344    0.6272 C   0  0  0  0  0  4           0  0  0
   -2.1779   -0.0000    1.3949 C   0  0  2  0  0  4           0  0  0
    2.4565    3.6767    0.5356 C   0  0  0  0  0  4           0  0  0
   -2.7719   -0.0407    2.8414 C   0  0  1  0  0  4           0  0  0
    0.0000    0.0000   -0.0000 C   0  0  0  0  0  4           0  0  0
   -0.6450   -0.0000    1.3949 C   0  0  0  0  0  4           0  0  0
   -2.4070    1.1960    3.6775 C   0  0  0  0  0  4           0  0  0
   -4.2978   -0.2284    2.8679 C   0  0  0  0  0  4           0  0  0
  1  7  1  0     0  0
  1 19  1  0     0  0
  2  8  1  0     0  0
  2 20  1  0     0  0
  3  9  1  0     0  0
  3 21  1  0     0  0
  4 10  1  0     0  0
  4 22  1  0     0  0
  5 23  3  0     0  0
  6 24  1  0     0  0
  6 25  1  0     0  0
  6 26  1  0     0  0
  7  9  2  0     0  0
  7 13  1  0     0  0
  8 10  2  0     0  0
  8 14  1  0     0  0
  9 15  1  0     0  0
 10 16  1  0     0  0
 11 13  2  0     0  0
 11 17  1  0     0  0
 11 27  1  0     0  0
 12 14  2  0     0  0
 12 18  1  0     0  0
 12 28  1  0     0  0
 15 17  2  0     0  0
 16 18  2  0     0  0
 23 27  1  0     0  0
 24 28  1  0     0  0
 25 30  1  0     0  0
 27 29  1  0     0  0
 27 31  1  0     0  0
 29 32  1  0     0  0
 29 33  1  0     0  0
 30 31  1  0     0  0
M  END
> <standard_type>
pIC50

> <# Confs.>
25

> <canonical_smiles>
N#CC(CCCN(C)CCC1=CC(OC)=C(OC)C=C1)(C2=CC(OC)=C(OC)C=C2)C(C)C

> <standard_relation>
=

> <Publication_ID>
nan

> <predicted_activity_value>
nan

> <actual_activity_value>
0.8446639625349381

> <Compound>
Verapamil

> <standard_units>
uM

> hash
10366669951309685448

$$$$
54
XXILIB    08252103503D 0   0.00000     0.00000

 33 34  0     1  0            999 V2000
   -2.6225    4.8725    1.0106 O   0  0  0  0  0  2           0  0  0
    8.7700   -0.2082    2.8889 O   0  0  0  0  0  2           0  0  0
   -4.0663    4.6846   -1.3001 O   0  0  0  0  0  2           0  0  0
   10.1804   -1.1025    0.7279 O   0  0  0  0  0  2           0  0  0
   -2.9705   -2.1285    0.0825 N   0  0  0  0  0  3           0  0  0
    2.2175   -1.1220    0.6478 N   0  0  1  0  0  3           0  0  0
   -2.9485    3.6492    0.4959 C   0  0  0  0  0  4           0  0  0
    8.1332   -0.8512    1.8649 C   0  0  0  0  0  4           0  0  0
   -3.6774    3.5236   -0.6932 C   0  0  0  0  0  4           0  0  0
    8.8332   -1.3305    0.7508 C   0  0  0  0  0  4           0  0  0
   -2.7205    1.2273    0.6863 C   0  0  0  0  0  4           0  0  0
    6.0341   -1.7617    1.0171 C   0  0  0  0  0  4           0  0  0
   -2.4559    2.5214    1.1639 C   0  0  0  0  0  4           0  0  0
    6.7598   -1.0830    2.0098 C   0  0  0  0  0  4           0  0  0
   -3.9318    2.2419   -1.1848 C   0  0  0  0  0  4           0  0  0
    8.1236   -2.0205   -0.2338 C   0  0  0  0  0  4           0  0  0
   -3.4570    1.1122   -0.5051 C   0  0  0  0  0  4           0  0  0
    6.7453   -2.2343   -0.0992 C   0  0  0  0  0  4           0  0  0
   -3.5762    5.4273    1.9125 C   0  0  0  0  0  4           0  0  0
    8.8755    1.2059    2.7481 C   0  0  0  0  0  4           0  0  0
   -4.8058    4.5224   -2.5074 C   0  0  0  0  0  4           0  0  0
   10.8632   -1.6024   -0.4187 C   0  0  0  0  0  4           0  0  0
   -2.6208   -1.1865    0.6638 C   0  0  0  0  0  4           0  0  0
    3.6681   -0.9483    0.5475 C   0  0  0  0  0  4           0  0  0
    1.5350   -0.0000   -0.0000 C   0  0  0  0  0  4           0  0  0
    1.7990   -2.4008    0.0618 C   0  0  0  0  0  4           0  0  0
   -2.1779   -0.0000    1.3949 C   0  0  2  0  0  4           0  0  0
    4.5629   -2.0284    1.1711 C   0  0  0  0  0  4           0  0  0
   -2.7719   -0.0407    2.8414 C   0  0  1  0  0  4           0  0  0
    0.0000    0.0000   -0.0000 C   0  0  0  0  0  4           0  0  0
   -0.6450   -0.0000    1.3949 C   0  0  0  0  0  4           0  0  0
   -4.3067   -0.1154    2.8606 C   0  0  0  0  0  4           0  0  0
   -2.2059   -1.1840    3.7000 C   0  0  0  0  0  4           0  0  0
  1  7  1  0     0  0
  1 19  1  0     0  0
  2  8  1  0     0  0
  2 20  1  0     0  0
  3  9  1  0     0  0
  3 21  1  0     0  0
  4 10  1  0     0  0
  4 22  1  0     0  0
  5 23  3  0     0  0
  6 24  1  0     0  0
  6 25  1  0     0  0
  6 26  1  0     0  0
  7  9  2  0     0  0
  7 13  1  0     0  0
  8 10  2  0     0  0
  8 14  1  0     0  0
  9 15  1  0     0  0
 10 16  1  0     0  0
 11 13  2  0     0  0
 11 17  1  0     0  0
 11 27  1  0     0  0
 12 14  2  0     0  0
 12 18  1  0     0  0
 12 28  1  0     0  0
 15 17  2  0     0  0
 16 18  2  0     0  0
 23 27  1  0     0  0
 24 28  1  0     0  0
 25 30  1  0     0  0
 27 29  1  0     0  0
 27 31  1  0     0  0
 29 32  1  0     0  0
 29 33  1  0     0  0
 30 31  1  0     0  0
M  END
> <standard_type>
pIC50

> <# Confs.>
25

> <canonical_smiles>
N#CC(CCCN(C)CCC1=CC(OC)=C(OC)C=C1)(C2=CC(OC)=C(OC)C=C2)C(C)C

> <standard_relation>
=

> <Publication_ID>
nan

> <predicted_activity_value>
nan

> <actual_activity_value>
0.8446639625349381

> <Compound>
Verapamil

> <standard_units>
uM

> hash
10366669951309685448

$$$$
54
XXILIB    08252103503D 0   0.00000     0.00000

 33 34  0     1  0            999 V2000
   -2.6225    4.8725    1.0106 O   0  0  0  0  0  2           0  0  0
    2.9351    6.8496   -3.1614 O   0  0  0  0  0  2           0  0  0
   -4.0663    4.6846   -1.3001 O   0  0  0  0  0  2           0  0  0
    0.7357    8.2713   -2.3867 O   0  0  0  0  0  2           0  0  0
   -2.9705   -2.1285    0.0825 N   0  0  0  0  0  3           0  0  0
    2.2175    1.1220    0.6478 N   0  0  1  0  0  3           0  0  0
   -2.9485    3.6492    0.4959 C   0  0  0  0  0  4           0  0  0
    2.2466    6.4993   -2.0342 C   0  0  0  0  0  4           0  0  0
   -3.6774    3.5236   -0.6932 C   0  0  0  0  0  4           0  0  0
    1.1089    7.2031   -1.6203 C   0  0  0  0  0  4           0  0  0
   -2.7205    1.2273    0.6863 C   0  0  0  0  0  4           0  0  0
    2.0098    4.9108   -0.1972 C   0  0  0  0  0  4           0  0  0
   -2.4559    2.5214    1.1639 C   0  0  0  0  0  4           0  0  0
    2.6781    5.3566   -1.3492 C   0  0  0  0  0  4           0  0  0
   -3.9318    2.2419   -1.1848 C   0  0  0  0  0  4           0  0  0
    0.4282    6.7583   -0.4855 C   0  0  0  0  0  4           0  0  0
   -3.4570    1.1122   -0.5051 C   0  0  0  0  0  4           0  0  0
    0.8720    5.6271    0.2124 C   0  0  0  0  0  4           0  0  0
   -3.5762    5.4273    1.9125 C   0  0  0  0  0  4           0  0  0
    2.5000    6.2169   -4.3619 C   0  0  0  0  0  4           0  0  0
   -3.1419    5.2170   -2.2450 C   0  0  0  0  0  4           0  0  0
   -0.4253    8.9658   -1.9389 C   0  0  0  0  0  4           0  0  0
   -2.6208   -1.1865    0.6638 C   0  0  0  0  0  4           0  0  0
    1.8408    2.3781   -0.0039 C   0  0  0  0  0  4           0  0  0
    1.5350    0.0000    0.0000 C   0  0  0  0  0  4           0  0  0
    3.6730    0.9344    0.6272 C   0  0  0  0  0  4           0  0  0
   -2.1779   -0.0000    1.3949 C   0  0  2  0  0  4           0  0  0
    2.4565    3.6767    0.5356 C   0  0  0  0  0  4           0  0  0
   -2.7719   -0.0407    2.8414 C   0  0  1  0  0  4           0  0  0
    0.0000    0.0000   -0.0000 C   0  0  0  0  0  4           0  0  0
   -0.6450   -0.0000    1.3949 C   0  0  0  0  0  4           0  0  0
   -4.3067   -0.1154    2.8606 C   0  0  0  0  0  4           0  0  0
   -2.2059   -1.1840    3.7000 C   0  0  0  0  0  4           0  0  0
  1  7  1  0     0  0
  1 19  1  0     0  0
  2  8  1  0     0  0
  2 20  1  0     0  0
  3  9  1  0     0  0
  3 21  1  0     0  0
  4 10  1  0     0  0
  4 22  1  0     0  0
  5 23  3  0     0  0
  6 24  1  0     0  0
  6 25  1  0     0  0
  6 26  1  0     0  0
  7  9  2  0     0  0
  7 13  1  0     0  0
  8 10  2  0     0  0
  8 14  1  0     0  0
  9 15  1  0     0  0
 10 16  1  0     0  0
 11 13  2  0     0  0
 11 17  1  0     0  0
 11 27  1  0     0  0
 12 14  2  0     0  0
 12 18  1  0     0  0
 12 28  1  0     0  0
 15 17  2  0     0  0
 16 18  2  0     0  0
 23 27  1  0     0  0
 24 28  1  0     0  0
 25 30  1  0     0  0
 27 29  1  0     0  0
 27 31  1  0     0  0
 29 32  1  0     0  0
 29 33  1  0     0  0
 30 31  1  0     0  0
M  END
> <standard_type>
pIC50

> <# Confs.>
25

> <canonical_smiles>
N#CC(CCCN(C)CCC1=CC(OC)=C(OC)C=C1)(C2=CC(OC)=C(OC)C=C2)C(C)C

> <standard_relation>
=

> <Publication_ID>
nan

> <predicted_activity_value>
nan

> <actual_activity_value>
0.8446639625349381

> <Compound>
Verapamil

> <standard_units>
uM

> hash
10366669951309685448

$$$$
54
XXILIB    08252103503D 0   0.00000     0.00000

 33 34  0     1  0            999 V2000
   -4.7933    2.0494   -2.2171 O   0  0  0  0  0  2           0  0  0
    2.9351    6.8496   -3.1614 O   0  0  0  0  0  2           0  0  0
   -4.3815    4.5718   -1.2542 O   0  0  0  0  0  2           0  0  0
    0.7357    8.2713   -2.3867 O   0  0  0  0  0  2           0  0  0
   -2.9705   -2.1285    0.0825 N   0  0  0  0  0  3           0  0  0
    2.2175    1.1220    0.6478 N   0  0  1  0  0  3           0  0  0
   -4.0151    2.2496   -1.1117 C   0  0  0  0  0  4           0  0  0
    2.2466    6.4993   -2.0342 C   0  0  0  0  0  4           0  0  0
   -3.7969    3.5305   -0.5897 C   0  0  0  0  0  4           0  0  0
    1.1089    7.2031   -1.6203 C   0  0  0  0  0  4           0  0  0
   -2.7205    1.2273    0.6863 C   0  0  0  0  0  4           0  0  0
    2.0098    4.9108   -0.1972 C   0  0  0  0  0  4           0  0  0
   -3.5064    1.1125   -0.4721 C   0  0  0  0  0  4           0  0  0
    2.6781    5.3566   -1.3492 C   0  0  0  0  0  4           0  0  0
   -3.0304    3.6539    0.5707 C   0  0  0  0  0  4           0  0  0
    0.4282    6.7583   -0.4855 C   0  0  0  0  0  4           0  0  0
   -2.5035    2.5177    1.1992 C   0  0  0  0  0  4           0  0  0
    0.8720    5.6271    0.2124 C   0  0  0  0  0  4           0  0  0
   -4.1032    2.0907   -3.4632 C   0  0  0  0  0  4           0  0  0
    3.9838    7.7944   -2.9656 C   0  0  0  0  0  4           0  0  0
   -4.1404    5.8613   -0.6979 C   0  0  0  0  0  4           0  0  0
   -0.4253    8.9658   -1.9389 C   0  0  0  0  0  4           0  0  0
   -2.6208   -1.1865    0.6638 C   0  0  0  0  0  4           0  0  0
    1.8408    2.3781   -0.0039 C   0  0  0  0  0  4           0  0  0
    1.5350    0.0000    0.0000 C   0  0  0  0  0  4           0  0  0
    3.6730    0.9344    0.6272 C   0  0  0  0  0  4           0  0  0
   -2.1779   -0.0000    1.3949 C   0  0  2  0  0  4           0  0  0
    2.4565    3.6767    0.5356 C   0  0  0  0  0  4           0  0  0
   -2.7719   -0.0407    2.8414 C   0  0  1  0  0  4           0  0  0
    0.0000    0.0000   -0.0000 C   0  0  0  0  0  4           0  0  0
   -0.6450   -0.0000    1.3949 C   0  0  0  0  0  4           0  0  0
   -4.3067   -0.1154    2.8606 C   0  0  0  0  0  4           0  0  0
   -2.2059   -1.1840    3.7000 C   0  0  0  0  0  4           0  0  0
  1  7  1  0     0  0
  1 19  1  0     0  0
  2  8  1  0     0  0
  2 20  1  0     0  0
  3  9  1  0     0  0
  3 21  1  0     0  0
  4 10  1  0     0  0
  4 22  1  0     0  0
  5 23  3  0     0  0
  6 24  1  0     0  0
  6 25  1  0     0  0
  6 26  1  0     0  0
  7  9  2  0     0  0
  7 13  1  0     0  0
  8 10  2  0     0  0
  8 14  1  0     0  0
  9 15  1  0     0  0
 10 16  1  0     0  0
 11 13  2  0     0  0
 11 17  1  0     0  0
 11 27  1  0     0  0
 12 14  2  0     0  0
 12 18  1  0     0  0
 12 28  1  0     0  0
 15 17  2  0     0  0
 16 18  2  0     0  0
 23 27  1  0     0  0
 24 28  1  0     0  0
 25 30  1  0     0  0
 27 29  1  0     0  0
 27 31  1  0     0  0
 29 32  1  0     0  0
 29 33  1  0     0  0
 30 31  1  0     0  0
M  END
> <standard_type>
pIC50

> <# Confs.>
25

> <canonical_smiles>
N#CC(CCCN(C)CCC1=CC(OC)=C(OC)C=C1)(C2=CC(OC)=C(OC)C=C2)C(C)C

> <standard_relation>
=

> <Publication_ID>
nan

> <predicted_activity_value>
nan

> <actual_activity_value>
0.8446639625349381

> <Compound>
Verapamil

> <standard_units>
uM

> hash
10366669951309685448

$$$$
54
XXILIB    08252103503D 0   0.00000     0.00000

 33 34  0     1  0            999 V2000
   -4.7933    2.0494   -2.2171 O   0  0  0  0  0  2           0  0  0
    3.1526    7.1646   -2.7294 O   0  0  0  0  0  2           0  0  0
   -4.3815    4.5718   -1.2542 O   0  0  0  0  0  2           0  0  0
    0.6711    7.5390   -3.8069 O   0  0  0  0  0  2           0  0  0
   -2.9705   -2.1285    0.0825 N   0  0  0  0  0  3           0  0  0
    2.2175    1.1220    0.6478 N   0  0  1  0  0  3           0  0  0
   -4.0151    2.2496   -1.1117 C   0  0  0  0  0  4           0  0  0
    2.2215    6.1652   -2.6863 C   0  0  0  0  0  4           0  0  0
   -3.7969    3.5305   -0.5897 C   0  0  0  0  0  4           0  0  0
    0.9459    6.3258   -3.2413 C   0  0  0  0  0  4           0  0  0
   -2.7205    1.2273    0.6863 C   0  0  0  0  0  4           0  0  0
    1.7341    3.8536   -2.0755 C   0  0  0  0  0  4           0  0  0
   -3.5064    1.1125   -0.4721 C   0  0  0  0  0  4           0  0  0
    2.6201    4.9420   -2.1334 C   0  0  0  0  0  4           0  0  0
   -3.0304    3.6539    0.5707 C   0  0  0  0  0  4           0  0  0
    0.0634    5.2446   -3.2032 C   0  0  0  0  0  4           0  0  0
   -2.5035    2.5177    1.1992 C   0  0  0  0  0  4           0  0  0
    0.4547    4.0269   -2.6310 C   0  0  0  0  0  4           0  0  0
   -4.1032    2.0907   -3.4632 C   0  0  0  0  0  4           0  0  0
    4.0005    7.1579   -3.8747 C   0  0  0  0  0  4           0  0  0
   -4.1404    5.8613   -0.6979 C   0  0  0  0  0  4           0  0  0
   -0.6346    7.6701   -4.3625 C   0  0  0  0  0  4           0  0  0
   -2.6208   -1.1865    0.6638 C   0  0  0  0  0  4           0  0  0
    1.8408    2.3781   -0.0039 C   0  0  0  0  0  4           0  0  0
    1.5350   -0.0000    0.0000 C   0  0  0  0  0  4           0  0  0
    3.6730    0.9344    0.6272 C   0  0  0  0  0  4           0  0  0
   -2.1779   -0.0000    1.3949 C   0  0  2  0  0  4           0  0  0
    2.1581    2.5323   -1.4978 C   0  0  0  0  0  4           0  0  0
   -2.7719   -0.0407    2.8414 C   0  0  1  0  0  4           0  0  0
    0.0000    0.0000   -0.0000 C   0  0  0  0  0  4           0  0  0
   -0.6450   -0.0000    1.3949 C   0  0  0  0  0  4           0  0  0
   -4.3067   -0.1154    2.8606 C   0  0  0  0  0  4           0  0  0
   -2.2059   -1.1840    3.7000 C   0  0  0  0  0  4           0  0  0
  1  7  1  0     0  0
  1 19  1  0     0  0
  2  8  1  0     0  0
  2 20  1  0     0  0
  3  9  1  0     0  0
  3 21  1  0     0  0
  4 10  1  0     0  0
  4 22  1  0     0  0
  5 23  3  0     0  0
  6 24  1  0     0  0
  6 25  1  0     0  0
  6 26  1  0     0  0
  7  9  2  0     0  0
  7 13  1  0     0  0
  8 10  2  0     0  0
  8 14  1  0     0  0
  9 15  1  0     0  0
 10 16  1  0     0  0
 11 13  2  0     0  0
 11 17  1  0     0  0
 11 27  1  0     0  0
 12 14  2  0     0  0
 12 18  1  0     0  0
 12 28  1  0     0  0
 15 17  2  0     0  0
 16 18  2  0     0  0
 23 27  1  0     0  0
 24 28  1  0     0  0
 25 30  1  0     0  0
 27 29  1  0     0  0
 27 31  1  0     0  0
 29 32  1  0     0  0
 29 33  1  0     0  0
 30 31  1  0     0  0
M  END
> <standard_type>
pIC50

> <# Confs.>
25

> <canonical_smiles>
N#CC(CCCN(C)CCC1=CC(OC)=C(OC)C=C1)(C2=CC(OC)=C(OC)C=C2)C(C)C

> <standard_relation>
=

> <Publication_ID>
nan

> <predicted_activity_value>
nan

> <actual_activity_value>
0.8446639625349381

> <Compound>
Verapamil

> <standard_units>
uM

> hash
10366669951309685448

$$$$
54
XXILIB    08252103503D 0   0.00000     0.00000

 33 34  0     1  0            999 V2000
   -2.6225    4.8725    1.0106 O   0  0  0  0  0  2           0  0  0
    3.1526    7.1646   -2.7294 O   0  0  0  0  0  2           0  0  0
   -4.0663    4.6846   -1.3001 O   0  0  0  0  0  2           0  0  0
    0.6711    7.5390   -3.8069 O   0  0  0  0  0  2           0  0  0
   -2.9705   -2.1285    0.0825 N   0  0  0  0  0  3           0  0  0
    2.2175    1.1220    0.6478 N   0  0  1  0  0  3           0  0  0
   -2.9485    3.6492    0.4959 C   0  0  0  0  0  4           0  0  0
    2.2215    6.1652   -2.6863 C   0  0  0  0  0  4           0  0  0
   -3.6774    3.5236   -0.6932 C   0  0  0  0  0  4           0  0  0
    0.9459    6.3258   -3.2413 C   0  0  0  0  0  4           0  0  0
   -2.7205    1.2273    0.6863 C   0  0  0  0  0  4           0  0  0
    1.7341    3.8536   -2.0755 C   0  0  0  0  0  4           0  0  0
   -2.4559    2.5214    1.1639 C   0  0  0  0  0  4           0  0  0
    2.6201    4.9420   -2.1334 C   0  0  0  0  0  4           0  0  0
   -3.9318    2.2419   -1.1848 C   0  0  0  0  0  4           0  0  0
    0.0634    5.2446   -3.2032 C   0  0  0  0  0  4           0  0  0
   -3.4570    1.1122   -0.5051 C   0  0  0  0  0  4           0  0  0
    0.4547    4.0269   -2.6310 C   0  0  0  0  0  4           0  0  0
   -3.5762    5.4273    1.9125 C   0  0  0  0  0  4           0  0  0
    4.0005    7.1579   -3.8747 C   0  0  0  0  0  4           0  0  0
   -4.8058    4.5224   -2.5074 C   0  0  0  0  0  4           0  0  0
   -0.6346    7.6701   -4.3625 C   0  0  0  0  0  4           0  0  0
   -2.6208   -1.1865    0.6638 C   0  0  0  0  0  4           0  0  0
    1.8408    2.3781   -0.0039 C   0  0  0  0  0  4           0  0  0
    1.5350   -0.0000    0.0000 C   0  0  0  0  0  4           0  0  0
    3.6730    0.9344    0.6272 C   0  0  0  0  0  4           0  0  0
   -2.1779   -0.0000    1.3949 C   0  0  2  0  0  4           0  0  0
    2.1581    2.5323   -1.4978 C   0  0  0  0  0  4           0  0  0
   -2.7719   -0.0407    2.8414 C   0  0  1  0  0  4           0  0  0
    0.0000    0.0000   -0.0000 C   0  0  0  0  0  4           0  0  0
   -0.6450   -0.0000    1.3949 C   0  0  0  0  0  4           0  0  0
   -4.3067   -0.1154    2.8606 C   0  0  0  0  0  4           0  0  0
   -2.2059   -1.1840    3.7000 C   0  0  0  0  0  4           0  0  0
  1  7  1  0     0  0
  1 19  1  0     0  0
  2  8  1  0     0  0
  2 20  1  0     0  0
  3  9  1  0     0  0
  3 21  1  0     0  0
  4 10  1  0     0  0
  4 22  1  0     0  0
  5 23  3  0     0  0
  6 24  1  0     0  0
  6 25  1  0     0  0
  6 26  1  0     0  0
  7  9  2  0     0  0
  7 13  1  0     0  0
  8 10  2  0     0  0
  8 14  1  0     0  0
  9 15  1  0     0  0
 10 16  1  0     0  0
 11 13  2  0     0  0
 11 17  1  0     0  0
 11 27  1  0     0  0
 12 14  2  0     0  0
 12 18  1  0     0  0
 12 28  1  0     0  0
 15 17  2  0     0  0
 16 18  2  0     0  0
 23 27  1  0     0  0
 24 28  1  0     0  0
 25 30  1  0     0  0
 27 29  1  0     0  0
 27 31  1  0     0  0
 29 32  1  0     0  0
 29 33  1  0     0  0
 30 31  1  0     0  0
M  END
> <standard_type>
pIC50

> <# Confs.>
25

> <canonical_smiles>
N#CC(CCCN(C)CCC1=CC(OC)=C(OC)C=C1)(C2=CC(OC)=C(OC)C=C2)C(C)C

> <standard_relation>
=

> <Publication_ID>
nan

> <predicted_activity_value>
nan

> <actual_activity_value>
0.8446639625349381

> <Compound>
Verapamil

> <standard_units>
uM

> hash
10366669951309685448

$$$$
54
XXILIB    08252103503D 0   0.00000     0.00000

 33 34  0     1  0            999 V2000
   -2.6225    4.8725    1.0106 O   0  0  0  0  0  2           0  0  0
    8.7019    0.0838    2.8171 O   0  0  0  0  0  2           0  0  0
   -4.0663    4.6846   -1.3001 O   0  0  0  0  0  2           0  0  0
   10.1236    1.0281    0.6849 O   0  0  0  0  0  2           0  0  0
   -2.9705   -2.1285    0.0825 N   0  0  0  0  0  3           0  0  0
    2.2175    1.1220    0.6478 N   0  0  1  0  0  3           0  0  0
   -2.9485    3.6492    0.4959 C   0  0  0  0  0  4           0  0  0
    8.0952    0.8600    1.8700 C   0  0  0  0  0  4           0  0  0
   -3.6774    3.5236   -0.6932 C   0  0  0  0  0  4           0  0  0
    8.7971    1.3475    0.7606 C   0  0  0  0  0  4           0  0  0
   -2.7205    1.2273    0.6863 C   0  0  0  0  0  4           0  0  0
    6.0136    1.8477    1.0668 C   0  0  0  0  0  4           0  0  0
   -2.4559    2.5214    1.1639 C   0  0  0  0  0  4           0  0  0
    6.7202    1.0846    2.0107 C   0  0  0  0  0  4           0  0  0
   -3.9318    2.2419   -1.1848 C   0  0  0  0  0  4           0  0  0
    8.1001    2.0937   -0.1916 C   0  0  0  0  0  4           0  0  0
   -3.4570    1.1122   -0.5051 C   0  0  0  0  0  4           0  0  0
    6.7284    2.3364   -0.0402 C   0  0  0  0  0  4           0  0  0
   -3.5762    5.4273    1.9125 C   0  0  0  0  0  4           0  0  0
    9.2879    0.7956    3.9037 C   0  0  0  0  0  4           0  0  0
   -4.8058    4.5224   -2.5074 C   0  0  0  0  0  4           0  0  0
   10.8089    1.5391   -0.4552 C   0  0  0  0  0  4           0  0  0
   -2.6208   -1.1865    0.6638 C   0  0  0  0  0  4           0  0  0
    3.6728    0.9811    0.5664 C   0  0  0  0  0  4           0  0  0
    1.5350   -0.0000    0.0000 C   0  0  0  0  0  4           0  0  0
    1.8141    2.3990    0.0483 C   0  0  0  0  0  4           0  0  0
   -2.1779   -0.0000    1.3949 C   0  0  2  0  0  4           0  0  0
    4.5347    2.0811    1.2015 C   0  0  0  0  0  4           0  0  0
   -2.7719   -0.0407    2.8414 C   0  0  1  0  0  4           0  0  0
    0.0000    0.0000   -0.0000 C   0  0  0  0  0  4           0  0  0
   -0.6450   -0.0000    1.3949 C   0  0  0  0  0  4           0  0  0
   -4.3067   -0.1154    2.8606 C   0  0  0  0  0  4           0  0  0
   -2.2059   -1.1840    3.7000 C   0  0  0  0  0  4           0  0  0
  1  7  1  0     0  0
  1 19  1  0     0  0
  2  8  1  0     0  0
  2 20  1  0     0  0
  3  9  1  0     0  0
  3 21  1  0     0  0
  4 10  1  0     0  0
  4 22  1  0     0  0
  5 23  3  0     0  0
  6 24  1  0     0  0
  6 25  1  0     0  0
  6 26  1  0     0  0
  7  9  2  0     0  0
  7 13  1  0     0  0
  8 10  2  0     0  0
  8 14  1  0     0  0
  9 15  1  0     0  0
 10 16  1  0     0  0
 11 13  2  0     0  0
 11 17  1  0     0  0
 11 27  1  0     0  0
 12 14  2  0     0  0
 12 18  1  0     0  0
 12 28  1  0     0  0
 15 17  2  0     0  0
 16 18  2  0     0  0
 23 27  1  0     0  0
 24 28  1  0     0  0
 25 30  1  0     0  0
 27 29  1  0     0  0
 27 31  1  0     0  0
 29 32  1  0     0  0
 29 33  1  0     0  0
 30 31  1  0     0  0
M  END
> <standard_type>
pIC50

> <# Confs.>
25

> <canonical_smiles>
N#CC(CCCN(C)CCC1=CC(OC)=C(OC)C=C1)(C2=CC(OC)=C(OC)C=C2)C(C)C

> <standard_relation>
=

> <Publication_ID>
nan

> <predicted_activity_value>
nan

> <actual_activity_value>
0.8446639625349381

> <Compound>
Verapamil

> <standard_units>
uM

> hash
10366669951309685448

$$$$
54
XXILIB    08252103503D 0   0.00000     0.00000

 33 34  0     1  0            999 V2000
   -2.6225    4.8725    1.0106 O   0  0  0  0  0  2           0  0  0
    8.3204   -1.4650   -1.3253 O   0  0  0  0  0  2           0  0  0
   -4.0663    4.6846   -1.3001 O   0  0  0  0  0  2           0  0  0
    9.9800   -0.3783    0.5519 O   0  0  0  0  0  2           0  0  0
   -2.9705   -2.1285    0.0825 N   0  0  0  0  0  3           0  0  0
    2.2175    1.1220    0.6478 N   0  0  1  0  0  3           0  0  0
   -2.9485    3.6492    0.4959 C   0  0  0  0  0  4           0  0  0
    7.8083   -0.9185   -0.1823 C   0  0  0  0  0  4           0  0  0
   -3.6774    3.5236   -0.6932 C   0  0  0  0  0  4           0  0  0
    8.6350   -0.3441    0.7912 C   0  0  0  0  0  4           0  0  0
   -2.7205    1.2273    0.6863 C   0  0  0  0  0  4           0  0  0
    5.8045   -0.3151    1.0726 C   0  0  0  0  0  4           0  0  0
   -2.4559    2.5214    1.1639 C   0  0  0  0  0  4           0  0  0
    6.4139   -0.8843   -0.0576 C   0  0  0  0  0  4           0  0  0
   -3.9318    2.2419   -1.1848 C   0  0  0  0  0  4           0  0  0
    8.0380    0.2386    1.9107 C   0  0  0  0  0  4           0  0  0
   -3.4570    1.1122   -0.5051 C   0  0  0  0  0  4           0  0  0
    6.6434    0.2543    2.0459 C   0  0  0  0  0  4           0  0  0
   -1.3785    5.4077    0.5674 C   0  0  0  0  0  4           0  0  0
    8.4500   -0.5672   -2.4244 C   0  0  0  0  0  4           0  0  0
   -4.8058    4.5224   -2.5074 C   0  0  0  0  0  4           0  0  0
   10.7933    0.2142    1.5609 C   0  0  0  0  0  4           0  0  0
   -2.6208   -1.1865    0.6638 C   0  0  0  0  0  4           0  0  0
    3.6728    0.9811    0.5664 C   0  0  0  0  0  4           0  0  0
    1.5350   -0.0000   -0.0000 C   0  0  0  0  0  4           0  0  0
    1.8141    2.3990    0.0483 C   0  0  0  0  0  4           0  0  0
   -2.1779   -0.0000    1.3949 C   0  0  2  0  0  4           0  0  0
    4.3084   -0.2602    1.2078 C   0  0  0  0  0  4           0  0  0
   -2.7719   -0.0407    2.8414 C   0  0  1  0  0  4           0  0  0
    0.0000    0.0000   -0.0000 C   0  0  0  0  0  4           0  0  0
   -0.6450   -0.0000    1.3949 C   0  0  0  0  0  4           0  0  0
   -4.3067   -0.1154    2.8606 C   0  0  0  0  0  4           0  0  0
   -2.2059   -1.1840    3.7000 C   0  0  0  0  0  4           0  0  0
  1  7  1  0     0  0
  1 19  1  0     0  0
  2  8  1  0     0  0
  2 20  1  0     0  0
  3  9  1  0     0  0
  3 21  1  0     0  0
  4 10  1  0     0  0
  4 22  1  0     0  0
  5 23  3  0     0  0
  6 24  1  0     0  0
  6 25  1  0     0  0
  6 26  1  0     0  0
  7  9  2  0     0  0
  7 13  1  0     0  0
  8 10  2  0     0  0
  8 14  1  0     0  0
  9 15  1  0     0  0
 10 16  1  0     0  0
 11 13  2  0     0  0
 11 17  1  0     0  0
 11 27  1  0     0  0
 12 14  2  0     0  0
 12 18  1  0     0  0
 12 28  1  0     0  0
 15 17  2  0     0  0
 16 18  2  0     0  0
 23 27  1  0     0  0
 24 28  1  0     0  0
 25 30  1  0     0  0
 27 29  1  0     0  0
 27 31  1  0     0  0
 29 32  1  0     0  0
 29 33  1  0     0  0
 30 31  1  0     0  0
M  END
> <standard_type>
pIC50

> <# Confs.>
25

> <canonical_smiles>
N#CC(CCCN(C)CCC1=CC(OC)=C(OC)C=C1)(C2=CC(OC)=C(OC)C=C2)C(C)C

> <standard_relation>
=

> <Publication_ID>
nan

> <predicted_activity_value>
nan

> <actual_activity_value>
0.8446639625349381

> <Compound>
Verapamil

> <standard_units>
uM

> hash
10366669951309685448

$$$$
54
XXILIB    08252103503D 0   0.00000     0.00000

 33 34  0     1  0            999 V2000
   -5.6300    2.2034   -1.3096 O   0  0  0  0  0  2           0  0  0
   -0.5571    7.5068    0.0746 O   0  0  0  0  0  2           0  0  0
   -4.3643    4.6202   -1.1834 O   0  0  0  0  0  2           0  0  0
    0.7845    8.4549   -2.1072 O   0  0  0  0  0  2           0  0  0
   -2.9705   -2.1285    0.0825 N   0  0  0  0  0  3           0  0  0
    2.2175    1.1220    0.6478 N   0  0  1  0  0  3           0  0  0
   -4.4321    2.3242   -0.6633 C   0  0  0  0  0  4           0  0  0
    0.5073    6.8185   -0.4361 C   0  0  0  0  0  4           0  0  0
   -3.7671    3.5533   -0.5730 C   0  0  0  0  0  4           0  0  0
    1.2205    7.2875   -1.5462 C   0  0  0  0  0  4           0  0  0
   -2.7205    1.2273    0.6863 C   0  0  0  0  0  4           0  0  0
    2.0098    4.9108   -0.1972 C   0  0  0  0  0  4           0  0  0
   -3.9312    1.1832   -0.0242 C   0  0  0  0  0  4           0  0  0
    0.9081    5.6620    0.2441 C   0  0  0  0  0  4           0  0  0
   -2.5710    3.6110    0.1447 C   0  0  0  0  0  4           0  0  0
    2.3269    6.5565   -1.9829 C   0  0  0  0  0  4           0  0  0
   -2.0587    2.4646    0.7666 C   0  0  0  0  0  4           0  0  0
    2.7156    5.3876   -1.3151 C   0  0  0  0  0  4           0  0  0
   -6.7833    2.4039   -0.4970 C   0  0  0  0  0  4           0  0  0
   -0.2379    8.4598    1.0849 C   0  0  0  0  0  4           0  0  0
   -3.6628    5.8557   -1.0733 C   0  0  0  0  0  4           0  0  0
    1.5312    8.9048   -3.2345 C   0  0  0  0  0  4           0  0  0
   -2.6208   -1.1865    0.6638 C   0  0  0  0  0  4           0  0  0
    1.8408    2.3781   -0.0039 C   0  0  0  0  0  4           0  0  0
    1.5350    0.0000   -0.0000 C   0  0  0  0  0  4           0  0  0
    3.6730    0.9344    0.6272 C   0  0  0  0  0  4           0  0  0
   -2.1779   -0.0000    1.3949 C   0  0  2  0  0  4           0  0  0
    2.4565    3.6767    0.5356 C   0  0  0  0  0  4           0  0  0
   -2.7719   -0.0407    2.8414 C   0  0  1  0  0  4           0  0  0
    0.0000    0.0000   -0.0000 C   0  0  0  0  0  4           0  0  0
   -0.6450   -0.0000    1.3949 C   0  0  0  0  0  4           0  0  0
   -4.3067   -0.1154    2.8606 C   0  0  0  0  0  4           0  0  0
   -2.2059   -1.1840    3.7000 C   0  0  0  0  0  4           0  0  0
  1  7  1  0     0  0
  1 19  1  0     0  0
  2  8  1  0     0  0
  2 20  1  0     0  0
  3  9  1  0     0  0
  3 21  1  0     0  0
  4 10  1  0     0  0
  4 22  1  0     0  0
  5 23  3  0     0  0
  6 24  1  0     0  0
  6 25  1  0     0  0
  6 26  1  0     0  0
  7  9  2  0     0  0
  7 13  1  0     0  0
  8 10  2  0     0  0
  8 14  1  0     0  0
  9 15  1  0     0  0
 10 16  1  0     0  0
 11 13  2  0     0  0
 11 17  1  0     0  0
 11 27  1  0     0  0
 12 14  2  0     0  0
 12 18  1  0     0  0
 12 28  1  0     0  0
 15 17  2  0     0  0
 16 18  2  0     0  0
 23 27  1  0     0  0
 24 28  1  0     0  0
 25 30  1  0     0  0
 27 29  1  0     0  0
 27 31  1  0     0  0
 29 32  1  0     0  0
 29 33  1  0     0  0
 30 31  1  0     0  0
M  END
> <standard_type>
pIC50

> <# Confs.>
25

> <canonical_smiles>
N#CC(CCCN(C)CCC1=CC(OC)=C(OC)C=C1)(C2=CC(OC)=C(OC)C=C2)C(C)C

> <standard_relation>
=

> <Publication_ID>
nan

> <predicted_activity_value>
nan

> <actual_activity_value>
0.8446639625349381

> <Compound>
Verapamil

> <standard_units>
uM

> hash
10366669951309685448

$$$$
54
XXILIB    08252103503D 0   0.00000     0.00000

 33 34  0     1  0            999 V2000
   -2.6225    4.8725    1.0106 O   0  0  0  0  0  2           0  0  0
    8.7860    0.6330    2.9736 O   0  0  0  0  0  2           0  0  0
   -4.0663    4.6846   -1.3001 O   0  0  0  0  0  2           0  0  0
    9.9991   -0.5591    0.8368 O   0  0  0  0  0  2           0  0  0
   -2.9705   -2.1285    0.0825 N   0  0  0  0  0  3           0  0  0
    2.2175    1.1220    0.6478 N   0  0  1  0  0  3           0  0  0
   -2.9485    3.6492    0.4959 C   0  0  0  0  0  4           0  0  0
    8.0391    0.1328    1.9444 C   0  0  0  0  0  4           0  0  0
   -3.6774    3.5236   -0.6932 C   0  0  0  0  0  4           0  0  0
    8.6341   -0.4939    0.8424 C   0  0  0  0  0  4           0  0  0
   -2.7205    1.2273    0.6863 C   0  0  0  0  0  4           0  0  0
    5.8045   -0.3151    1.0726 C   0  0  0  0  0  4           0  0  0
   -2.4559    2.5214    1.1639 C   0  0  0  0  0  4           0  0  0
    6.6462    0.2008    2.0716 C   0  0  0  0  0  4           0  0  0
   -3.9318    2.2419   -1.1848 C   0  0  0  0  0  4           0  0  0
    7.8056   -1.0242   -0.1483 C   0  0  0  0  0  4           0  0  0
   -3.4570    1.1122   -0.5051 C   0  0  0  0  0  4           0  0  0
    6.4119   -0.9376   -0.0314 C   0  0  0  0  0  4           0  0  0
   -1.3785    5.4077    0.5674 C   0  0  0  0  0  4           0  0  0
    9.0447   -0.2790    4.0376 C   0  0  0  0  0  4           0  0  0
   -4.8058    4.5224   -2.5074 C   0  0  0  0  0  4           0  0  0
   10.5733   -1.2024   -0.2977 C   0  0  0  0  0  4           0  0  0
   -2.6208   -1.1865    0.6638 C   0  0  0  0  0  4           0  0  0
    3.6728    0.9811    0.5664 C   0  0  0  0  0  4           0  0  0
    1.5350    0.0000   -0.0000 C   0  0  0  0  0  4           0  0  0
    1.8141    2.3990    0.0483 C   0  0  0  0  0  4           0  0  0
   -2.1779   -0.0000    1.3949 C   0  0  2  0  0  4           0  0  0
    4.3084   -0.2602    1.2078 C   0  0  0  0  0  4           0  0  0
   -2.7719   -0.0407    2.8414 C   0  0  1  0  0  4           0  0  0
    0.0000    0.0000   -0.0000 C   0  0  0  0  0  4           0  0  0
   -0.6450   -0.0000    1.3949 C   0  0  0  0  0  4           0  0  0
   -4.3067   -0.1154    2.8606 C   0  0  0  0  0  4           0  0  0
   -2.2059   -1.1840    3.7000 C   0  0  0  0  0  4           0  0  0
  1  7  1  0     0  0
  1 19  1  0     0  0
  2  8  1  0     0  0
  2 20  1  0     0  0
  3  9  1  0     0  0
  3 21  1  0     0  0
  4 10  1  0     0  0
  4 22  1  0     0  0
  5 23  3  0     0  0
  6 24  1  0     0  0
  6 25  1  0     0  0
  6 26  1  0     0  0
  7  9  2  0     0  0
  7 13  1  0     0  0
  8 10  2  0     0  0
  8 14  1  0     0  0
  9 15  1  0     0  0
 10 16  1  0     0  0
 11 13  2  0     0  0
 11 17  1  0     0  0
 11 27  1  0     0  0
 12 14  2  0     0  0
 12 18  1  0     0  0
 12 28  1  0     0  0
 15 17  2  0     0  0
 16 18  2  0     0  0
 23 27  1  0     0  0
 24 28  1  0     0  0
 25 30  1  0     0  0
 27 29  1  0     0  0
 27 31  1  0     0  0
 29 32  1  0     0  0
 29 33  1  0     0  0
 30 31  1  0     0  0
M  END
> <standard_type>
pIC50

> <# Confs.>
25

> <canonical_smiles>
N#CC(CCCN(C)CCC1=CC(OC)=C(OC)C=C1)(C2=CC(OC)=C(OC)C=C2)C(C)C

> <standard_relation>
=

> <Publication_ID>
nan

> <predicted_activity_value>
nan

> <actual_activity_value>
0.8446639625349381

> <Compound>
Verapamil

> <standard_units>
uM

> hash
10366669951309685448

$$$$
54
XXILIB    08252103503D 0   0.00000     0.00000

 33 34  0     1  0            999 V2000
   -4.7933    2.0494   -2.2171 O   0  0  0  0  0  2           0  0  0
    8.3204   -1.4650   -1.3253 O   0  0  0  0  0  2           0  0  0
   -4.3815    4.5718   -1.2542 O   0  0  0  0  0  2           0  0  0
    9.9800   -0.3783    0.5519 O   0  0  0  0  0  2           0  0  0
   -2.9705   -2.1285    0.0825 N   0  0  0  0  0  3           0  0  0
    2.2175    1.1220    0.6478 N   0  0  1  0  0  3           0  0  0
   -4.0151    2.2496   -1.1117 C   0  0  0  0  0  4           0  0  0
    7.8083   -0.9185   -0.1823 C   0  0  0  0  0  4           0  0  0
   -3.7969    3.5305   -0.5897 C   0  0  0  0  0  4           0  0  0
    8.6350   -0.3441    0.7912 C   0  0  0  0  0  4           0  0  0
   -2.7205    1.2273    0.6863 C   0  0  0  0  0  4           0  0  0
    5.8045   -0.3151    1.0726 C   0  0  0  0  0  4           0  0  0
   -3.5064    1.1125   -0.4721 C   0  0  0  0  0  4           0  0  0
    6.4139   -0.8843   -0.0576 C   0  0  0  0  0  4           0  0  0
   -3.0304    3.6539    0.5707 C   0  0  0  0  0  4           0  0  0
    8.0380    0.2386    1.9107 C   0  0  0  0  0  4           0  0  0
   -2.5035    2.5177    1.1992 C   0  0  0  0  0  4           0  0  0
    6.6434    0.2543    2.0459 C   0  0  0  0  0  4           0  0  0
   -4.1032    2.0907   -3.4632 C   0  0  0  0  0  4           0  0  0
    8.6472   -2.8497   -1.2450 C   0  0  0  0  0  4           0  0  0
   -4.1404    5.8613   -0.6979 C   0  0  0  0  0  4           0  0  0
   10.7933    0.2142    1.5609 C   0  0  0  0  0  4           0  0  0
   -2.6208   -1.1865    0.6638 C   0  0  0  0  0  4           0  0  0
    3.6728    0.9811    0.5664 C   0  0  0  0  0  4           0  0  0
    1.5350   -0.0000   -0.0000 C   0  0  0  0  0  4           0  0  0
    1.8141    2.3990    0.0483 C   0  0  0  0  0  4           0  0  0
   -2.1779   -0.0000    1.3949 C   0  0  2  0  0  4           0  0  0
    4.3084   -0.2602    1.2078 C   0  0  0  0  0  4           0  0  0
   -2.7719   -0.0407    2.8414 C   0  0  1  0  0  4           0  0  0
    0.0000    0.0000   -0.0000 C   0  0  0  0  0  4           0  0  0
   -0.6450   -0.0000    1.3949 C   0  0  0  0  0  4           0  0  0
   -4.3067   -0.1154    2.8606 C   0  0  0  0  0  4           0  0  0
   -2.2059   -1.1840    3.7000 C   0  0  0  0  0  4           0  0  0
  1  7  1  0     0  0
  1 19  1  0     0  0
  2  8  1  0     0  0
  2 20  1  0     0  0
  3  9  1  0     0  0
  3 21  1  0     0  0
  4 10  1  0     0  0
  4 22  1  0     0  0
  5 23  3  0     0  0
  6 24  1  0     0  0
  6 25  1  0     0  0
  6 26  1  0     0  0
  7  9  2  0     0  0
  7 13  1  0     0  0
  8 10  2  0     0  0
  8 14  1  0     0  0
  9 15  1  0     0  0
 10 16  1  0     0  0
 11 13  2  0     0  0
 11 17  1  0     0  0
 11 27  1  0     0  0
 12 14  2  0     0  0
 12 18  1  0     0  0
 12 28  1  0     0  0
 15 17  2  0     0  0
 16 18  2  0     0  0
 23 27  1  0     0  0
 24 28  1  0     0  0
 25 30  1  0     0  0
 27 29  1  0     0  0
 27 31  1  0     0  0
 29 32  1  0     0  0
 29 33  1  0     0  0
 30 31  1  0     0  0
M  END
> <standard_type>
pIC50

> <# Confs.>
25

> <canonical_smiles>
N#CC(CCCN(C)CCC1=CC(OC)=C(OC)C=C1)(C2=CC(OC)=C(OC)C=C2)C(C)C

> <standard_relation>
=

> <Publication_ID>
nan

> <predicted_activity_value>
nan

> <actual_activity_value>
0.8446639625349381

> <Compound>
Verapamil

> <standard_units>
uM

> hash
10366669951309685448

$$$$
54
XXILIB    08252103503D 0   0.00000     0.00000

 33 34  0     1  0            999 V2000
   -2.6225    4.8725    1.0106 O   0  0  0  0  0  2           0  0  0
    8.7592    2.7540   -1.1787 O   0  0  0  0  0  2           0  0  0
   -4.0663    4.6846   -1.3001 O   0  0  0  0  0  2           0  0  0
   10.1771    1.3616    0.6947 O   0  0  0  0  0  2           0  0  0
   -2.9705   -2.1285    0.0825 N   0  0  0  0  0  3           0  0  0
    2.2175    1.1220    0.6478 N   0  0  1  0  0  3           0  0  0
   -2.9485    3.6492    0.4959 C   0  0  0  0  0  4           0  0  0
    8.1215    2.1743   -0.1182 C   0  0  0  0  0  4           0  0  0
   -3.6774    3.5236   -0.6932 C   0  0  0  0  0  4           0  0  0
    8.8249    1.4649    0.8631 C   0  0  0  0  0  4           0  0  0
   -2.7205    1.2273    0.6863 C   0  0  0  0  0  4           0  0  0
    6.0136    1.8477    1.0668 C   0  0  0  0  0  4           0  0  0
   -2.4559    2.5214    1.1639 C   0  0  0  0  0  4           0  0  0
    6.7414    2.3845   -0.0079 C   0  0  0  0  0  4           0  0  0
   -3.9318    2.2419   -1.1848 C   0  0  0  0  0  4           0  0  0
    8.1128    0.9411    1.9437 C   0  0  0  0  0  4           0  0  0
   -3.4570    1.1122   -0.5051 C   0  0  0  0  0  4           0  0  0
    6.7284    1.1334    2.0435 C   0  0  0  0  0  4           0  0  0
   -3.5762    5.4273    1.9125 C   0  0  0  0  0  4           0  0  0
    8.8984    1.9277   -2.3313 C   0  0  0  0  0  4           0  0  0
   -4.8058    4.5224   -2.5074 C   0  0  0  0  0  4           0  0  0
   10.8633    0.6341    1.7099 C   0  0  0  0  0  4           0  0  0
   -2.6208   -1.1865    0.6638 C   0  0  0  0  0  4           0  0  0
    3.6728    0.9811    0.5664 C   0  0  0  0  0  4           0  0  0
    1.5350   -0.0000    0.0000 C   0  0  0  0  0  4           0  0  0
    1.8141    2.3990    0.0483 C   0  0  0  0  0  4           0  0  0
   -2.1779   -0.0000    1.3949 C   0  0  2  0  0  4           0  0  0
    4.5347    2.0811    1.2015 C   0  0  0  0  0  4           0  0  0
   -2.7719   -0.0407    2.8414 C   0  0  1  0  0  4           0  0  0
    0.0000    0.0000   -0.0000 C   0  0  0  0  0  4           0  0  0
   -0.6450   -0.0000    1.3949 C   0  0  0  0  0  4           0  0  0
   -4.3067   -0.1154    2.8606 C   0  0  0  0  0  4           0  0  0
   -2.2059   -1.1840    3.7000 C   0  0  0  0  0  4           0  0  0
  1  7  1  0     0  0
  1 19  1  0     0  0
  2  8  1  0     0  0
  2 20  1  0     0  0
  3  9  1  0     0  0
  3 21  1  0     0  0
  4 10  1  0     0  0
  4 22  1  0     0  0
  5 23  3  0     0  0
  6 24  1  0     0  0
  6 25  1  0     0  0
  6 26  1  0     0  0
  7  9  2  0     0  0
  7 13  1  0     0  0
  8 10  2  0     0  0
  8 14  1  0     0  0
  9 15  1  0     0  0
 10 16  1  0     0  0
 11 13  2  0     0  0
 11 17  1  0     0  0
 11 27  1  0     0  0
 12 14  2  0     0  0
 12 18  1  0     0  0
 12 28  1  0     0  0
 15 17  2  0     0  0
 16 18  2  0     0  0
 23 27  1  0     0  0
 24 28  1  0     0  0
 25 30  1  0     0  0
 27 29  1  0     0  0
 27 31  1  0     0  0
 29 32  1  0     0  0
 29 33  1  0     0  0
 30 31  1  0     0  0
M  END
> <standard_type>
pIC50

> <# Confs.>
25

> <canonical_smiles>
N#CC(CCCN(C)CCC1=CC(OC)=C(OC)C=C1)(C2=CC(OC)=C(OC)C=C2)C(C)C

> <standard_relation>
=

> <Publication_ID>
nan

> <predicted_activity_value>
nan

> <actual_activity_value>
0.8446639625349381

> <Compound>
Verapamil

> <standard_units>
uM

> hash
10366669951309685448

$$$$
54
XXILIB    08252103503D 0   0.00000     0.00000

 33 34  0     1  0            999 V2000
   -2.6225    4.8725    1.0106 O   0  0  0  0  0  2           0  0  0
    3.1526    7.1646   -2.7294 O   0  0  0  0  0  2           0  0  0
   -4.0663    4.6846   -1.3001 O   0  0  0  0  0  2           0  0  0
    0.6711    7.5390   -3.8069 O   0  0  0  0  0  2           0  0  0
   -2.9705   -2.1285    0.0825 N   0  0  0  0  0  3           0  0  0
    2.2175    1.1220    0.6478 N   0  0  1  0  0  3           0  0  0
   -2.9485    3.6492    0.4959 C   0  0  0  0  0  4           0  0  0
    2.2215    6.1652   -2.6863 C   0  0  0  0  0  4           0  0  0
   -3.6774    3.5236   -0.6932 C   0  0  0  0  0  4           0  0  0
    0.9459    6.3258   -3.2413 C   0  0  0  0  0  4           0  0  0
   -2.7205    1.2273    0.6863 C   0  0  0  0  0  4           0  0  0
    1.7341    3.8536   -2.0755 C   0  0  0  0  0  4           0  0  0
   -2.4559    2.5214    1.1639 C   0  0  0  0  0  4           0  0  0
    2.6201    4.9420   -2.1334 C   0  0  0  0  0  4           0  0  0
   -3.9318    2.2419   -1.1848 C   0  0  0  0  0  4           0  0  0
    0.0634    5.2446   -3.2032 C   0  0  0  0  0  4           0  0  0
   -3.4570    1.1122   -0.5051 C   0  0  0  0  0  4           0  0  0
    0.4547    4.0269   -2.6310 C   0  0  0  0  0  4           0  0  0
   -1.3785    5.4077    0.5674 C   0  0  0  0  0  4           0  0  0
    4.0005    7.1579   -3.8747 C   0  0  0  0  0  4           0  0  0
   -5.3372    5.1868   -0.8961 C   0  0  0  0  0  4           0  0  0
   -0.6346    7.6701   -4.3625 C   0  0  0  0  0  4           0  0  0
   -2.6208   -1.1865    0.6638 C   0  0  0  0  0  4           0  0  0
    1.8408    2.3781   -0.0039 C   0  0  0  0  0  4           0  0  0
    1.5350   -0.0000    0.0000 C   0  0  0  0  0  4           0  0  0
    3.6730    0.9344    0.6272 C   0  0  0  0  0  4           0  0  0
   -2.1779   -0.0000    1.3949 C   0  0  2  0  0  4           0  0  0
    2.1581    2.5323   -1.4978 C   0  0  0  0  0  4           0  0  0
   -2.7719   -0.0407    2.8414 C   0  0  1  0  0  4           0  0  0
    0.0000    0.0000   -0.0000 C   0  0  0  0  0  4           0  0  0
   -0.6450   -0.0000    1.3949 C   0  0  0  0  0  4           0  0  0
   -4.3067   -0.1154    2.8606 C   0  0  0  0  0  4           0  0  0
   -2.2059   -1.1840    3.7000 C   0  0  0  0  0  4           0  0  0
  1  7  1  0     0  0
  1 19  1  0     0  0
  2  8  1  0     0  0
  2 20  1  0     0  0
  3  9  1  0     0  0
  3 21  1  0     0  0
  4 10  1  0     0  0
  4 22  1  0     0  0
  5 23  3  0     0  0
  6 24  1  0     0  0
  6 25  1  0     0  0
  6 26  1  0     0  0
  7  9  2  0     0  0
  7 13  1  0     0  0
  8 10  2  0     0  0
  8 14  1  0     0  0
  9 15  1  0     0  0
 10 16  1  0     0  0
 11 13  2  0     0  0
 11 17  1  0     0  0
 11 27  1  0     0  0
 12 14  2  0     0  0
 12 18  1  0     0  0
 12 28  1  0     0  0
 15 17  2  0     0  0
 16 18  2  0     0  0
 23 27  1  0     0  0
 24 28  1  0     0  0
 25 30  1  0     0  0
 27 29  1  0     0  0
 27 31  1  0     0  0
 29 32  1  0     0  0
 29 33  1  0     0  0
 30 31  1  0     0  0
M  END
> <standard_type>
pIC50

> <# Confs.>
25

> <canonical_smiles>
N#CC(CCCN(C)CCC1=CC(OC)=C(OC)C=C1)(C2=CC(OC)=C(OC)C=C2)C(C)C

> <standard_relation>
=

> <Publication_ID>
nan

> <predicted_activity_value>
nan

> <actual_activity_value>
0.8446639625349381

> <Compound>
Verapamil

> <standard_units>
uM

> hash
10366669951309685448

$$$$
54
XXILIB    08252103503D 0   0.00000     0.00000

 33 34  0     1  0            999 V2000
   -2.6225    4.8725    1.0106 O   0  0  0  0  0  2           0  0  0
   -0.5571    7.5068    0.0746 O   0  0  0  0  0  2           0  0  0
   -4.0663    4.6846   -1.3001 O   0  0  0  0  0  2           0  0  0
    0.7845    8.4549   -2.1072 O   0  0  0  0  0  2           0  0  0
   -2.9705   -2.1285    0.0825 N   0  0  0  0  0  3           0  0  0
    2.2175    1.1220    0.6478 N   0  0  1  0  0  3           0  0  0
   -2.9485    3.6492    0.4959 C   0  0  0  0  0  4           0  0  0
    0.5073    6.8185   -0.4361 C   0  0  0  0  0  4           0  0  0
   -3.6774    3.5236   -0.6932 C   0  0  0  0  0  4           0  0  0
    1.2205    7.2875   -1.5462 C   0  0  0  0  0  4           0  0  0
   -2.7205    1.2273    0.6863 C   0  0  0  0  0  4           0  0  0
    2.0098    4.9108   -0.1972 C   0  0  0  0  0  4           0  0  0
   -2.4559    2.5214    1.1639 C   0  0  0  0  0  4           0  0  0
    0.9081    5.6620    0.2441 C   0  0  0  0  0  4           0  0  0
   -3.9318    2.2419   -1.1848 C   0  0  0  0  0  4           0  0  0
    2.3269    6.5565   -1.9829 C   0  0  0  0  0  4           0  0  0
   -3.4570    1.1122   -0.5051 C   0  0  0  0  0  4           0  0  0
    2.7156    5.3876   -1.3151 C   0  0  0  0  0  4           0  0  0
   -3.5762    5.4273    1.9125 C   0  0  0  0  0  4           0  0  0
   -0.2379    8.4598    1.0849 C   0  0  0  0  0  4           0  0  0
   -4.8058    4.5224   -2.5074 C   0  0  0  0  0  4           0  0  0
    1.5312    8.9048   -3.2345 C   0  0  0  0  0  4           0  0  0
   -2.6208   -1.1865    0.6638 C   0  0  0  0  0  4           0  0  0
    1.8408    2.3781   -0.0039 C   0  0  0  0  0  4           0  0  0
    1.5350    0.0000   -0.0000 C   0  0  0  0  0  4           0  0  0
    3.6730    0.9344    0.6272 C   0  0  0  0  0  4           0  0  0
   -2.1779   -0.0000    1.3949 C   0  0  2  0  0  4           0  0  0
    2.4565    3.6767    0.5356 C   0  0  0  0  0  4           0  0  0
   -2.7719   -0.0407    2.8414 C   0  0  1  0  0  4           0  0  0
    0.0000    0.0000   -0.0000 C   0  0  0  0  0  4           0  0  0
   -0.6450   -0.0000    1.3949 C   0  0  0  0  0  4           0  0  0
   -4.3067   -0.1154    2.8606 C   0  0  0  0  0  4           0  0  0
   -2.2059   -1.1840    3.7000 C   0  0  0  0  0  4           0  0  0
  1  7  1  0     0  0
  1 19  1  0     0  0
  2  8  1  0     0  0
  2 20  1  0     0  0
  3  9  1  0     0  0
  3 21  1  0     0  0
  4 10  1  0     0  0
  4 22  1  0     0  0
  5 23  3  0     0  0
  6 24  1  0     0  0
  6 25  1  0     0  0
  6 26  1  0     0  0
  7  9  2  0     0  0
  7 13  1  0     0  0
  8 10  2  0     0  0
  8 14  1  0     0  0
  9 15  1  0     0  0
 10 16  1  0     0  0
 11 13  2  0     0  0
 11 17  1  0     0  0
 11 27  1  0     0  0
 12 14  2  0     0  0
 12 18  1  0     0  0
 12 28  1  0     0  0
 15 17  2  0     0  0
 16 18  2  0     0  0
 23 27  1  0     0  0
 24 28  1  0     0  0
 25 30  1  0     0  0
 27 29  1  0     0  0
 27 31  1  0     0  0
 29 32  1  0     0  0
 29 33  1  0     0  0
 30 31  1  0     0  0
M  END
> <standard_type>
pIC50

> <# Confs.>
25

> <canonical_smiles>
N#CC(CCCN(C)CCC1=CC(OC)=C(OC)C=C1)(C2=CC(OC)=C(OC)C=C2)C(C)C

> <standard_relation>
=

> <Publication_ID>
nan

> <predicted_activity_value>
nan

> <actual_activity_value>
0.8446639625349381

> <Compound>
Verapamil

> <standard_units>
uM

> hash
10366669951309685448

$$$$
54
XXILIB    08252103503D 0   0.00000     0.00000

 33 34  0     1  0            999 V2000
   -2.6225    4.8725    1.0106 O   0  0  0  0  0  2           0  0  0
    3.1503   -7.2997   -2.3181 O   0  0  0  0  0  2           0  0  0
   -4.0663    4.6846   -1.3001 O   0  0  0  0  0  2           0  0  0
    0.6857   -7.7311   -3.4130 O   0  0  0  0  0  2           0  0  0
   -2.9705   -2.1285    0.0825 N   0  0  0  0  0  3           0  0  0
    2.2175   -1.1220    0.6478 N   0  0  1  0  0  3           0  0  0
   -2.9485    3.6492    0.4959 C   0  0  0  0  0  4           0  0  0
    2.2631   -6.2691   -2.4530 C   0  0  0  0  0  4           0  0  0
   -3.6774    3.5236   -0.6932 C   0  0  0  0  0  4           0  0  0
    0.9888   -6.4642   -2.9998 C   0  0  0  0  0  4           0  0  0
   -2.7205    1.2273    0.6863 C   0  0  0  0  0  4           0  0  0
    1.7869   -3.9151   -2.0215 C   0  0  0  0  0  4           0  0  0
   -2.4559    2.5214    1.1639 C   0  0  0  0  0  4           0  0  0
    2.6496   -5.0211   -1.9489 C   0  0  0  0  0  4           0  0  0
   -3.9318    2.2419   -1.1848 C   0  0  0  0  0  4           0  0  0
    0.1179   -5.3747   -3.0616 C   0  0  0  0  0  4           0  0  0
   -3.4570    1.1122   -0.5051 C   0  0  0  0  0  4           0  0  0
    0.5121   -4.1206   -2.5765 C   0  0  0  0  0  4           0  0  0
   -3.5762    5.4273    1.9125 C   0  0  0  0  0  4           0  0  0
    4.0120   -7.5112   -3.4332 C   0  0  0  0  0  4           0  0  0
   -4.8058    4.5224   -2.5074 C   0  0  0  0  0  4           0  0  0
   -0.6179   -7.8962   -3.9643 C   0  0  0  0  0  4           0  0  0
   -2.6208   -1.1865    0.6638 C   0  0  0  0  0  4           0  0  0
    1.8635   -2.3969    0.0205 C   0  0  0  0  0  4           0  0  0
    1.5350    0.0000    0.0000 C   0  0  0  0  0  4           0  0  0
    3.6734   -0.9440    0.6093 C   0  0  0  0  0  4           0  0  0
   -2.1779   -0.0000    1.3949 C   0  0  2  0  0  4           0  0  0
    2.1874   -2.5756   -1.4693 C   0  0  0  0  0  4           0  0  0
   -2.7719   -0.0407    2.8414 C   0  0  1  0  0  4           0  0  0
    0.0000    0.0000   -0.0000 C   0  0  0  0  0  4           0  0  0
   -0.6450   -0.0000    1.3949 C   0  0  0  0  0  4           0  0  0
   -4.3067   -0.1154    2.8606 C   0  0  0  0  0  4           0  0  0
   -2.2059   -1.1840    3.7000 C   0  0  0  0  0  4           0  0  0
  1  7  1  0     0  0
  1 19  1  0     0  0
  2  8  1  0     0  0
  2 20  1  0     0  0
  3  9  1  0     0  0
  3 21  1  0     0  0
  4 10  1  0     0  0
  4 22  1  0     0  0
  5 23  3  0     0  0
  6 24  1  0     0  0
  6 25  1  0     0  0
  6 26  1  0     0  0
  7  9  2  0     0  0
  7 13  1  0     0  0
  8 10  2  0     0  0
  8 14  1  0     0  0
  9 15  1  0     0  0
 10 16  1  0     0  0
 11 13  2  0     0  0
 11 17  1  0     0  0
 11 27  1  0     0  0
 12 14  2  0     0  0
 12 18  1  0     0  0
 12 28  1  0     0  0
 15 17  2  0     0  0
 16 18  2  0     0  0
 23 27  1  0     0  0
 24 28  1  0     0  0
 25 30  1  0     0  0
 27 29  1  0     0  0
 27 31  1  0     0  0
 29 32  1  0     0  0
 29 33  1  0     0  0
 30 31  1  0     0  0
M  END
> <standard_type>
pIC50

> <# Confs.>
25

> <canonical_smiles>
N#CC(CCCN(C)CCC1=CC(OC)=C(OC)C=C1)(C2=CC(OC)=C(OC)C=C2)C(C)C

> <standard_relation>
=

> <Publication_ID>
nan

> <predicted_activity_value>
nan

> <actual_activity_value>
0.8446639625349381

> <Compound>
Verapamil

> <standard_units>
uM

> hash
10366669951309685448

$$$$
36
XXILIB    08252103503D 0   0.00000     0.00000

 26 29  0     1  0            999 V2000
   -0.0921   -0.0053    2.3904 F   0  0  0  0  0  1           0  0  0
   -4.9227    0.0054    1.2161 O   0  0  0  0  0  2           0  0  0
   -0.1252    0.0234   -2.3950 O   0  0  0  0  0  2           0  0  0
   -7.1888   -0.1198   -2.2510 O   0  0  0  0  0  2           0  0  0
   -7.1671   -0.0646    0.0149 O   0  0  0  0  0  2           0  0  0
   -2.9702   -0.0619   -2.3440 N   0  0  2  0  0  3           0  0  0
    1.3849    0.0000    0.0000 N   0  0  2  0  0  3           0  0  0
    4.2321   -0.1453    0.1622 N   0  0  2  0  0  3           0  0  0
   -0.7296    0.0000    1.2082 C   0  0  0  0  0  4           0  0  0
   -4.3416   -0.0192    0.1375 C   0  0  0  0  0  4           0  0  0
   -0.7856    0.0108   -1.1830 C   0  0  0  0  0  4           0  0  0
   -2.2035   -0.0182   -1.1602 C   0  0  0  0  0  4           0  0  0
   -4.3499   -0.0838   -2.2733 C   0  0  0  0  0  4           0  0  0
    0.0000    0.0000    0.0000 C   0  0  0  0  0  4           0  0  0
   -2.8569   -0.0090    0.0794 C   0  0  0  0  0  4           0  0  0
   -5.0930   -0.0629   -1.1560 C   0  0  0  0  0  4           0  0  0
   -2.1240    0.0020    1.2601 C   0  0  0  0  0  4           0  0  0
   -6.5650   -0.0840   -1.1980 C   0  0  0  0  0  4           0  0  0
   -0.9057    0.5794   -3.4522 C   0  0  0  0  0  4           0  0  0
   -2.2284   -0.1605   -3.6023 C   0  0  1  0  0  4           0  0  0
    2.0993   -1.1098   -0.6407 C   0  0  0  0  0  4           0  0  0
    2.0987    0.7140    1.0639 C   0  0  0  0  0  4           0  0  0
    3.5321   -0.7082   -0.9984 C   0  0  0  0  0  4           0  0  0
    3.5267    1.0523    0.6320 C   0  0  0  0  0  4           0  0  0
    5.6167    0.1765   -0.1819 C   0  0  0  0  0  4           0  0  0
   -2.0325   -1.6299   -3.9844 C   0  0  0  0  0  4           0  0  0
  1  9  1  0     0  0
  2 10  2  0     0  0
  3 11  1  0     0  0
  3 19  1  0     0  0
  4 18  2  0     0  0
  5 18  1  0     0  0
  6 12  1  0     0  0
  6 13  1  0     0  0
  6 20  1  0     0  0
  7 14  1  0     0  0
  7 21  1  0     0  0
  7 22  1  0     0  0
  8 23  1  0     0  0
  8 24  1  0     0  0
  8 25  1  0     0  0
  9 14  2  0     0  0
  9 17  1  0     0  0
 10 15  1  0     0  0
 10 16  1  0     0  0
 11 12  2  0     0  0
 11 14  1  0     0  0
 12 15  1  0     0  0
 13 16  2  0     0  0
 15 17  2  0     0  0
 16 18  1  0     0  0
 19 20  1  0     0  0
 20 26  1  0     0  0
 21 23  1  0     0  0
 22 24  1  0     0  0
M  END
> <standard_type>
pIC50

> <# Confs.>
25

> <canonical_smiles>
FC1=C(N2CCN(C)CC2)C3=C4C(C(C(C(O)=O)=CN4C(C)CO3)=O)=C1

> <standard_relation>
=

> <Publication_ID>
nan

> <predicted_activity_value>
nan

> <actual_activity_value>
-3.1522883443830563

> <Compound>
Ofloxacin

> <standard_units>
uM

> hash
9794261068918498007

$$$$
36
XXILIB    08252103503D 0   0.00000     0.00000

 26 29  0     1  0            999 V2000
   -0.0918   -0.0001    2.3904 F   0  0  0  0  0  1           0  0  0
   -4.9182   -0.0261    1.2221 O   0  0  0  0  0  2           0  0  0
   -0.1260   -0.0237   -2.3949 O   0  0  0  0  0  2           0  0  0
   -7.0941    0.1757   -2.4063 O   0  0  0  0  0  2           0  0  0
   -7.2472    0.1083   -0.1459 O   0  0  0  0  0  2           0  0  0
   -2.9703    0.0702   -2.3437 N   0  0  2  0  0  3           0  0  0
    1.3849    0.0000    0.0000 N   0  0  2  0  0  3           0  0  0
    4.2321   -0.1453    0.1622 N   0  0  2  0  0  3           0  0  0
   -0.7294    0.0000    1.2084 C   0  0  0  0  0  4           0  0  0
   -4.3448    0.0203    0.1406 C   0  0  0  0  0  4           0  0  0
   -0.7860   -0.0105   -1.1827 C   0  0  0  0  0  4           0  0  0
   -2.2042    0.0219   -1.1594 C   0  0  0  0  0  4           0  0  0
   -4.3488    0.1015   -2.2725 C   0  0  0  0  0  4           0  0  0
   -0.0000    0.0000    0.0000 C   0  0  0  0  0  4           0  0  0
   -2.8584    0.0124    0.0805 C   0  0  0  0  0  4           0  0  0
   -5.0895    0.0806   -1.1543 C   0  0  0  0  0  4           0  0  0
   -2.1242   -0.0006    1.2607 C   0  0  0  0  0  4           0  0  0
   -6.5535    0.1272   -1.3089 C   0  0  0  0  0  4           0  0  0
   -0.9091   -0.5724   -3.4544 C   0  0  0  0  0  4           0  0  0
   -2.2280    0.1749   -3.6007 C   0  0  1  0  0  4           0  0  0
    2.0993   -1.1098   -0.6407 C   0  0  0  0  0  4           0  0  0
    2.0987    0.7140    1.0639 C   0  0  0  0  0  4           0  0  0
    3.5321   -0.7082   -0.9984 C   0  0  0  0  0  4           0  0  0
    3.5267    1.0523    0.6320 C   0  0  0  0  0  4           0  0  0
    5.6167    0.1765   -0.1819 C   0  0  0  0  0  4           0  0  0
   -2.0236    1.6465   -3.9698 C   0  0  0  0  0  4           0  0  0
  1  9  1  0     0  0
  2 10  2  0     0  0
  3 11  1  0     0  0
  3 19  1  0     0  0
  4 18  2  0     0  0
  5 18  1  0     0  0
  6 12  1  0     0  0
  6 13  1  0     0  0
  6 20  1  0     0  0
  7 14  1  0     0  0
  7 21  1  0     0  0
  7 22  1  0     0  0
  8 23  1  0     0  0
  8 24  1  0     0  0
  8 25  1  0     0  0
  9 14  2  0     0  0
  9 17  1  0     0  0
 10 15  1  0     0  0
 10 16  1  0     0  0
 11 12  2  0     0  0
 11 14  1  0     0  0
 12 15  1  0     0  0
 13 16  2  0     0  0
 15 17  2  0     0  0
 16 18  1  0     0  0
 19 20  1  0     0  0
 20 26  1  0     0  0
 21 23  1  0     0  0
 22 24  1  0     0  0
M  END
> <standard_type>
pIC50

> <# Confs.>
25

> <canonical_smiles>
FC1=C(N2CCN(C)CC2)C3=C4C(C(C(C(O)=O)=CN4C(C)CO3)=O)=C1

> <standard_relation>
=

> <Publication_ID>
nan

> <predicted_activity_value>
nan

> <actual_activity_value>
-3.1522883443830563

> <Compound>
Ofloxacin

> <standard_units>
uM

> hash
9794261068918498007

$$$$
36
XXILIB    08252103503D 0   0.00000     0.00000

 26 29  0     1  0            999 V2000
   -0.0921   -0.0053    2.3904 F   0  0  0  0  0  1           0  0  0
   -4.9227    0.0054    1.2161 O   0  0  0  0  0  2           0  0  0
   -0.1252    0.0234   -2.3950 O   0  0  0  0  0  2           0  0  0
   -7.1888   -0.1198   -2.2510 O   0  0  0  0  0  2           0  0  0
   -7.1671   -0.0646    0.0149 O   0  0  0  0  0  2           0  0  0
   -2.9702   -0.0619   -2.3440 N   0  0  2  0  0  3           0  0  0
    1.3849    0.0000    0.0000 N   0  0  2  0  0  3           0  0  0
    4.2321   -0.0678   -0.2069 N   0  0  2  0  0  3           0  0  0
   -0.7296    0.0000    1.2082 C   0  0  0  0  0  4           0  0  0
   -4.3416   -0.0192    0.1375 C   0  0  0  0  0  4           0  0  0
   -0.7856    0.0108   -1.1830 C   0  0  0  0  0  4           0  0  0
   -2.2035   -0.0182   -1.1602 C   0  0  0  0  0  4           0  0  0
   -4.3499   -0.0838   -2.2733 C   0  0  0  0  0  4           0  0  0
    0.0000    0.0000    0.0000 C   0  0  0  0  0  4           0  0  0
   -2.8569   -0.0090    0.0794 C   0  0  0  0  0  4           0  0  0
   -5.0930   -0.0629   -1.1560 C   0  0  0  0  0  4           0  0  0
   -2.1240    0.0020    1.2601 C   0  0  0  0  0  4           0  0  0
   -6.5650   -0.0840   -1.1980 C   0  0  0  0  0  4           0  0  0
   -0.9057    0.5794   -3.4522 C   0  0  0  0  0  4           0  0  0
   -2.2284   -0.1605   -3.6023 C   0  0  1  0  0  4           0  0  0
    2.0993    1.1098   -0.6407 C   0  0  0  0  0  4           0  0  0
    2.0987   -1.2783    0.0864 C   0  0  0  0  0  4           0  0  0
    3.5321    1.2187   -0.1141 C   0  0  0  0  0  4           0  0  0
    3.5267   -1.0735    0.5954 C   0  0  0  0  0  4           0  0  0
    5.6167    0.0692    0.2438 C   0  0  0  0  0  4           0  0  0
   -2.0325   -1.6299   -3.9844 C   0  0  0  0  0  4           0  0  0
  1  9  1  0     0  0
  2 10  2  0     0  0
  3 11  1  0     0  0
  3 19  1  0     0  0
  4 18  2  0     0  0
  5 18  1  0     0  0
  6 12  1  0     0  0
  6 13  1  0     0  0
  6 20  1  0     0  0
  7 14  1  0     0  0
  7 21  1  0     0  0
  7 22  1  0     0  0
  8 23  1  0     0  0
  8 24  1  0     0  0
  8 25  1  0     0  0
  9 14  2  0     0  0
  9 17  1  0     0  0
 10 15  1  0     0  0
 10 16  1  0     0  0
 11 12  2  0     0  0
 11 14  1  0     0  0
 12 15  1  0     0  0
 13 16  2  0     0  0
 15 17  2  0     0  0
 16 18  1  0     0  0
 19 20  1  0     0  0
 20 26  1  0     0  0
 21 23  1  0     0  0
 22 24  1  0     0  0
M  END
> <standard_type>
pIC50

> <# Confs.>
25

> <canonical_smiles>
FC1=C(N2CCN(C)CC2)C3=C4C(C(C(C(O)=O)=CN4C(C)CO3)=O)=C1

> <standard_relation>
=

> <Publication_ID>
nan

> <predicted_activity_value>
nan

> <actual_activity_value>
-3.1522883443830563

> <Compound>
Ofloxacin

> <standard_units>
uM

> hash
9794261068918498007

$$$$
36
XXILIB    08252103503D 0   0.00000     0.00000

 26 29  0     1  0            999 V2000
   -0.0921   -0.0053    2.3904 F   0  0  0  0  0  1           0  0  0
   -4.9227    0.0054    1.2161 O   0  0  0  0  0  2           0  0  0
   -0.1252    0.0234   -2.3950 O   0  0  0  0  0  2           0  0  0
   -7.1888   -0.1198   -2.2510 O   0  0  0  0  0  2           0  0  0
   -7.1671   -0.0646    0.0149 O   0  0  0  0  0  2           0  0  0
   -2.9702   -0.0619   -2.3440 N   0  0  2  0  0  3           0  0  0
    1.3731   -0.0000   -0.0000 N   0  0  2  0  0  3           0  0  0
    3.6831    0.9770    1.3311 N   0  0  2  0  0  3           0  0  0
   -0.7296    0.0000    1.2082 C   0  0  0  0  0  4           0  0  0
   -4.3416   -0.0192    0.1375 C   0  0  0  0  0  4           0  0  0
   -0.7856    0.0108   -1.1830 C   0  0  0  0  0  4           0  0  0
   -2.2035   -0.0182   -1.1602 C   0  0  0  0  0  4           0  0  0
   -4.3499   -0.0838   -2.2733 C   0  0  0  0  0  4           0  0  0
    0.0000    0.0000    0.0000 C   0  0  0  0  0  4           0  0  0
   -2.8569   -0.0090    0.0794 C   0  0  0  0  0  4           0  0  0
   -5.0930   -0.0629   -1.1560 C   0  0  0  0  0  4           0  0  0
   -2.1240    0.0020    1.2601 C   0  0  0  0  0  4           0  0  0
   -6.5650   -0.0840   -1.1980 C   0  0  0  0  0  4           0  0  0
   -0.9057    0.5794   -3.4522 C   0  0  0  0  0  4           0  0  0
   -2.2284   -0.1605   -3.6023 C   0  0  1  0  0  4           0  0  0
    2.1567    1.0705   -0.6181 C   0  0  0  0  0  4           0  0  0
    2.1549   -0.9086    0.8400 C   0  0  0  0  0  4           0  0  0
    2.8674    1.8642    0.4843 C   0  0  0  0  0  4           0  0  0
    2.8627   -0.0913    1.9266 C   0  0  0  0  0  4           0  0  0
    4.3605    1.7454    2.3745 C   0  0  0  0  0  4           0  0  0
   -2.0325   -1.6299   -3.9844 C   0  0  0  0  0  4           0  0  0
  1  9  1  0     0  0
  2 10  2  0     0  0
  3 11  1  0     0  0
  3 19  1  0     0  0
  4 18  2  0     0  0
  5 18  1  0     0  0
  6 12  1  0     0  0
  6 13  1  0     0  0
  6 20  1  0     0  0
  7 14  1  0     0  0
  7 21  1  0     0  0
  7 22  1  0     0  0
  8 23  1  0     0  0
  8 24  1  0     0  0
  8 25  1  0     0  0
  9 14  2  0     0  0
  9 17  1  0     0  0
 10 15  1  0     0  0
 10 16  1  0     0  0
 11 12  2  0     0  0
 11 14  1  0     0  0
 12 15  1  0     0  0
 13 16  2  0     0  0
 15 17  2  0     0  0
 16 18  1  0     0  0
 19 20  1  0     0  0
 20 26  1  0     0  0
 21 23  1  0     0  0
 22 24  1  0     0  0
M  END
> <standard_type>
pIC50

> <# Confs.>
25

> <canonical_smiles>
FC1=C(N2CCN(C)CC2)C3=C4C(C(C(C(O)=O)=CN4C(C)CO3)=O)=C1

> <standard_relation>
=

> <Publication_ID>
nan

> <predicted_activity_value>
nan

> <actual_activity_value>
-3.1522883443830563

> <Compound>
Ofloxacin

> <standard_units>
uM

> hash
9794261068918498007

$$$$
36
XXILIB    08252103503D 0   0.00000     0.00000

 26 29  0     1  0            999 V2000
   -0.0918   -0.0001    2.3904 F   0  0  0  0  0  1           0  0  0
   -4.9182   -0.0261    1.2221 O   0  0  0  0  0  2           0  0  0
   -0.1260   -0.0237   -2.3949 O   0  0  0  0  0  2           0  0  0
   -7.0941    0.1757   -2.4063 O   0  0  0  0  0  2           0  0  0
   -7.2472    0.1083   -0.1459 O   0  0  0  0  0  2           0  0  0
   -2.9703    0.0702   -2.3437 N   0  0  2  0  0  3           0  0  0
    1.3849    0.0000    0.0000 N   0  0  2  0  0  3           0  0  0
    4.2321   -0.0678   -0.2069 N   0  0  2  0  0  3           0  0  0
   -0.7294    0.0000    1.2084 C   0  0  0  0  0  4           0  0  0
   -4.3448    0.0203    0.1406 C   0  0  0  0  0  4           0  0  0
   -0.7860   -0.0105   -1.1827 C   0  0  0  0  0  4           0  0  0
   -2.2042    0.0219   -1.1594 C   0  0  0  0  0  4           0  0  0
   -4.3488    0.1015   -2.2725 C   0  0  0  0  0  4           0  0  0
   -0.0000    0.0000    0.0000 C   0  0  0  0  0  4           0  0  0
   -2.8584    0.0124    0.0805 C   0  0  0  0  0  4           0  0  0
   -5.0895    0.0806   -1.1543 C   0  0  0  0  0  4           0  0  0
   -2.1242   -0.0006    1.2607 C   0  0  0  0  0  4           0  0  0
   -6.5535    0.1272   -1.3089 C   0  0  0  0  0  4           0  0  0
   -0.9091   -0.5724   -3.4544 C   0  0  0  0  0  4           0  0  0
   -2.2280    0.1749   -3.6007 C   0  0  1  0  0  4           0  0  0
    2.0993    1.1098   -0.6407 C   0  0  0  0  0  4           0  0  0
    2.0987   -1.2783    0.0864 C   0  0  0  0  0  4           0  0  0
    3.5321    1.2187   -0.1141 C   0  0  0  0  0  4           0  0  0
    3.5267   -1.0735    0.5954 C   0  0  0  0  0  4           0  0  0
    5.6167    0.0692    0.2438 C   0  0  0  0  0  4           0  0  0
   -2.0236    1.6465   -3.9698 C   0  0  0  0  0  4           0  0  0
  1  9  1  0     0  0
  2 10  2  0     0  0
  3 11  1  0     0  0
  3 19  1  0     0  0
  4 18  2  0     0  0
  5 18  1  0     0  0
  6 12  1  0     0  0
  6 13  1  0     0  0
  6 20  1  0     0  0
  7 14  1  0     0  0
  7 21  1  0     0  0
  7 22  1  0     0  0
  8 23  1  0     0  0
  8 24  1  0     0  0
  8 25  1  0     0  0
  9 14  2  0     0  0
  9 17  1  0     0  0
 10 15  1  0     0  0
 10 16  1  0     0  0
 11 12  2  0     0  0
 11 14  1  0     0  0
 12 15  1  0     0  0
 13 16  2  0     0  0
 15 17  2  0     0  0
 16 18  1  0     0  0
 19 20  1  0     0  0
 20 26  1  0     0  0
 21 23  1  0     0  0
 22 24  1  0     0  0
M  END
> <standard_type>
pIC50

> <# Confs.>
25

> <canonical_smiles>
FC1=C(N2CCN(C)CC2)C3=C4C(C(C(C(O)=O)=CN4C(C)CO3)=O)=C1

> <standard_relation>
=

> <Publication_ID>
nan

> <predicted_activity_value>
nan

> <actual_activity_value>
-3.1522883443830563

> <Compound>
Ofloxacin

> <standard_units>
uM

> hash
9794261068918498007

$$$$
36
XXILIB    08252103503D 0   0.00000     0.00000

 26 29  0     1  0            999 V2000
   -0.0918   -0.0001    2.3904 F   0  0  0  0  0  1           0  0  0
   -4.9182   -0.0261    1.2221 O   0  0  0  0  0  2           0  0  0
   -0.1260   -0.0237   -2.3949 O   0  0  0  0  0  2           0  0  0
   -7.0941    0.1757   -2.4063 O   0  0  0  0  0  2           0  0  0
   -7.2472    0.1083   -0.1459 O   0  0  0  0  0  2           0  0  0
   -2.9703    0.0702   -2.3437 N   0  0  2  0  0  3           0  0  0
    1.3731   -0.0000   -0.0000 N   0  0  2  0  0  3           0  0  0
    3.6831    0.9770    1.3311 N   0  0  2  0  0  3           0  0  0
   -0.7294    0.0000    1.2084 C   0  0  0  0  0  4           0  0  0
   -4.3448    0.0203    0.1406 C   0  0  0  0  0  4           0  0  0
   -0.7860   -0.0105   -1.1827 C   0  0  0  0  0  4           0  0  0
   -2.2042    0.0219   -1.1594 C   0  0  0  0  0  4           0  0  0
   -4.3488    0.1015   -2.2725 C   0  0  0  0  0  4           0  0  0
   -0.0000    0.0000    0.0000 C   0  0  0  0  0  4           0  0  0
   -2.8584    0.0124    0.0805 C   0  0  0  0  0  4           0  0  0
   -5.0895    0.0806   -1.1543 C   0  0  0  0  0  4           0  0  0
   -2.1242   -0.0006    1.2607 C   0  0  0  0  0  4           0  0  0
   -6.5535    0.1272   -1.3089 C   0  0  0  0  0  4           0  0  0
   -0.9091   -0.5724   -3.4544 C   0  0  0  0  0  4           0  0  0
   -2.2280    0.1749   -3.6007 C   0  0  1  0  0  4           0  0  0
    2.1567    1.0705   -0.6181 C   0  0  0  0  0  4           0  0  0
    2.1549   -0.9086    0.8400 C   0  0  0  0  0  4           0  0  0
    2.8674    1.8642    0.4843 C   0  0  0  0  0  4           0  0  0
    2.8627   -0.0913    1.9266 C   0  0  0  0  0  4           0  0  0
    4.3605    1.7454    2.3745 C   0  0  0  0  0  4           0  0  0
   -2.0236    1.6465   -3.9698 C   0  0  0  0  0  4           0  0  0
  1  9  1  0     0  0
  2 10  2  0     0  0
  3 11  1  0     0  0
  3 19  1  0     0  0
  4 18  2  0     0  0
  5 18  1  0     0  0
  6 12  1  0     0  0
  6 13  1  0     0  0
  6 20  1  0     0  0
  7 14  1  0     0  0
  7 21  1  0     0  0
  7 22  1  0     0  0
  8 23  1  0     0  0
  8 24  1  0     0  0
  8 25  1  0     0  0
  9 14  2  0     0  0
  9 17  1  0     0  0
 10 15  1  0     0  0
 10 16  1  0     0  0
 11 12  2  0     0  0
 11 14  1  0     0  0
 12 15  1  0     0  0
 13 16  2  0     0  0
 15 17  2  0     0  0
 16 18  1  0     0  0
 19 20  1  0     0  0
 20 26  1  0     0  0
 21 23  1  0     0  0
 22 24  1  0     0  0
M  END
> <standard_type>
pIC50

> <# Confs.>
25

> <canonical_smiles>
FC1=C(N2CCN(C)CC2)C3=C4C(C(C(C(O)=O)=CN4C(C)CO3)=O)=C1

> <standard_relation>
=

> <Publication_ID>
nan

> <predicted_activity_value>
nan

> <actual_activity_value>
-3.1522883443830563

> <Compound>
Ofloxacin

> <standard_units>
uM

> hash
9794261068918498007

$$$$
36
XXILIB    08252103503D 0   0.00000     0.00000

 26 29  0     1  0            999 V2000
   -0.0921   -0.0053    2.3904 F   0  0  0  0  0  1           0  0  0
   -4.9227    0.0054    1.2161 O   0  0  0  0  0  2           0  0  0
   -0.1252    0.0234   -2.3950 O   0  0  0  0  0  2           0  0  0
   -7.1888   -0.1198   -2.2510 O   0  0  0  0  0  2           0  0  0
   -7.1671   -0.0646    0.0149 O   0  0  0  0  0  2           0  0  0
   -2.9702   -0.0619   -2.3440 N   0  0  2  0  0  3           0  0  0
    1.3731    0.0000    0.0000 N   0  0  2  0  0  3           0  0  0
    3.6831   -0.9770   -1.3311 N   0  0  2  0  0  3           0  0  0
   -0.7296    0.0000    1.2082 C   0  0  0  0  0  4           0  0  0
   -4.3416   -0.0192    0.1375 C   0  0  0  0  0  4           0  0  0
   -0.7856    0.0108   -1.1830 C   0  0  0  0  0  4           0  0  0
   -2.2035   -0.0182   -1.1602 C   0  0  0  0  0  4           0  0  0
   -4.3499   -0.0838   -2.2733 C   0  0  0  0  0  4           0  0  0
    0.0000    0.0000    0.0000 C   0  0  0  0  0  4           0  0  0
   -2.8569   -0.0090    0.0794 C   0  0  0  0  0  4           0  0  0
   -5.0930   -0.0629   -1.1560 C   0  0  0  0  0  4           0  0  0
   -2.1240    0.0020    1.2601 C   0  0  0  0  0  4           0  0  0
   -6.5650   -0.0840   -1.1980 C   0  0  0  0  0  4           0  0  0
   -0.9057    0.5794   -3.4522 C   0  0  0  0  0  4           0  0  0
   -2.2284   -0.1605   -3.6023 C   0  0  1  0  0  4           0  0  0
    2.1567   -1.0705    0.6181 C   0  0  0  0  0  4           0  0  0
    2.1549    0.9086   -0.8400 C   0  0  0  0  0  4           0  0  0
    2.8674   -1.8642   -0.4843 C   0  0  0  0  0  4           0  0  0
    2.8627    0.0913   -1.9266 C   0  0  0  0  0  4           0  0  0
    4.3605   -1.7454   -2.3745 C   0  0  0  0  0  4           0  0  0
   -2.0325   -1.6299   -3.9844 C   0  0  0  0  0  4           0  0  0
  1  9  1  0     0  0
  2 10  2  0     0  0
  3 11  1  0     0  0
  3 19  1  0     0  0
  4 18  2  0     0  0
  5 18  1  0     0  0
  6 12  1  0     0  0
  6 13  1  0     0  0
  6 20  1  0     0  0
  7 14  1  0     0  0
  7 21  1  0     0  0
  7 22  1  0     0  0
  8 23  1  0     0  0
  8 24  1  0     0  0
  8 25  1  0     0  0
  9 14  2  0     0  0
  9 17  1  0     0  0
 10 15  1  0     0  0
 10 16  1  0     0  0
 11 12  2  0     0  0
 11 14  1  0     0  0
 12 15  1  0     0  0
 13 16  2  0     0  0
 15 17  2  0     0  0
 16 18  1  0     0  0
 19 20  1  0     0  0
 20 26  1  0     0  0
 21 23  1  0     0  0
 22 24  1  0     0  0
M  END
> <standard_type>
pIC50

> <# Confs.>
25

> <canonical_smiles>
FC1=C(N2CCN(C)CC2)C3=C4C(C(C(C(O)=O)=CN4C(C)CO3)=O)=C1

> <standard_relation>
=

> <Publication_ID>
nan

> <predicted_activity_value>
nan

> <actual_activity_value>
-3.1522883443830563

> <Compound>
Ofloxacin

> <standard_units>
uM

> hash
9794261068918498007

$$$$
36
XXILIB    08252103503D 0   0.00000     0.00000

 26 29  0     1  0            999 V2000
   -0.0918   -0.0001    2.3904 F   0  0  0  0  0  1           0  0  0
   -4.9182   -0.0261    1.2221 O   0  0  0  0  0  2           0  0  0
   -0.1260   -0.0237   -2.3949 O   0  0  0  0  0  2           0  0  0
   -7.0941    0.1757   -2.4063 O   0  0  0  0  0  2           0  0  0
   -7.2472    0.1083   -0.1459 O   0  0  0  0  0  2           0  0  0
   -2.9703    0.0702   -2.3437 N   0  0  2  0  0  3           0  0  0
    1.3731    0.0000    0.0000 N   0  0  2  0  0  3           0  0  0
    3.6831   -0.9770   -1.3311 N   0  0  2  0  0  3           0  0  0
   -0.7294    0.0000    1.2084 C   0  0  0  0  0  4           0  0  0
   -4.3448    0.0203    0.1406 C   0  0  0  0  0  4           0  0  0
   -0.7860   -0.0105   -1.1827 C   0  0  0  0  0  4           0  0  0
   -2.2042    0.0219   -1.1594 C   0  0  0  0  0  4           0  0  0
   -4.3488    0.1015   -2.2725 C   0  0  0  0  0  4           0  0  0
   -0.0000    0.0000    0.0000 C   0  0  0  0  0  4           0  0  0
   -2.8584    0.0124    0.0805 C   0  0  0  0  0  4           0  0  0
   -5.0895    0.0806   -1.1543 C   0  0  0  0  0  4           0  0  0
   -2.1242   -0.0006    1.2607 C   0  0  0  0  0  4           0  0  0
   -6.5535    0.1272   -1.3089 C   0  0  0  0  0  4           0  0  0
   -0.9091   -0.5724   -3.4544 C   0  0  0  0  0  4           0  0  0
   -2.2280    0.1749   -3.6007 C   0  0  1  0  0  4           0  0  0
    2.1567   -1.0705    0.6181 C   0  0  0  0  0  4           0  0  0
    2.1549    0.9086   -0.8400 C   0  0  0  0  0  4           0  0  0
    2.8674   -1.8642   -0.4843 C   0  0  0  0  0  4           0  0  0
    2.8627    0.0913   -1.9266 C   0  0  0  0  0  4           0  0  0
    4.3605   -1.7454   -2.3745 C   0  0  0  0  0  4           0  0  0
   -2.0236    1.6465   -3.9698 C   0  0  0  0  0  4           0  0  0
  1  9  1  0     0  0
  2 10  2  0     0  0
  3 11  1  0     0  0
  3 19  1  0     0  0
  4 18  2  0     0  0
  5 18  1  0     0  0
  6 12  1  0     0  0
  6 13  1  0     0  0
  6 20  1  0     0  0
  7 14  1  0     0  0
  7 21  1  0     0  0
  7 22  1  0     0  0
  8 23  1  0     0  0
  8 24  1  0     0  0
  8 25  1  0     0  0
  9 14  2  0     0  0
  9 17  1  0     0  0
 10 15  1  0     0  0
 10 16  1  0     0  0
 11 12  2  0     0  0
 11 14  1  0     0  0
 12 15  1  0     0  0
 13 16  2  0     0  0
 15 17  2  0     0  0
 16 18  1  0     0  0
 19 20  1  0     0  0
 20 26  1  0     0  0
 21 23  1  0     0  0
 22 24  1  0     0  0
M  END
> <standard_type>
pIC50

> <# Confs.>
25

> <canonical_smiles>
FC1=C(N2CCN(C)CC2)C3=C4C(C(C(C(O)=O)=CN4C(C)CO3)=O)=C1

> <standard_relation>
=

> <Publication_ID>
nan

> <predicted_activity_value>
nan

> <actual_activity_value>
-3.1522883443830563

> <Compound>
Ofloxacin

> <standard_units>
uM

> hash
9794261068918498007

$$$$
36
XXILIB    08252103503D 0   0.00000     0.00000

 26 29  0     1  0            999 V2000
   -0.0921   -0.0053    2.3904 F   0  0  0  0  0  1           0  0  0
   -4.9227    0.0054    1.2161 O   0  0  0  0  0  2           0  0  0
   -0.1252    0.0234   -2.3950 O   0  0  0  0  0  2           0  0  0
   -7.1888   -0.1198   -2.2510 O   0  0  0  0  0  2           0  0  0
   -7.1671   -0.0646    0.0149 O   0  0  0  0  0  2           0  0  0
   -2.9702   -0.0619   -2.3440 N   0  0  2  0  0  3           0  0  0
    1.3731   -0.0000   -0.0000 N   0  0  2  0  0  3           0  0  0
    3.6831   -0.6642    1.5116 N   0  0  2  0  0  3           0  0  0
   -0.7296    0.0000    1.2082 C   0  0  0  0  0  4           0  0  0
   -4.3416   -0.0192    0.1375 C   0  0  0  0  0  4           0  0  0
   -0.7856    0.0108   -1.1830 C   0  0  0  0  0  4           0  0  0
   -2.2035   -0.0182   -1.1602 C   0  0  0  0  0  4           0  0  0
   -4.3499   -0.0838   -2.2733 C   0  0  0  0  0  4           0  0  0
    0.0000    0.0000    0.0000 C   0  0  0  0  0  4           0  0  0
   -2.8569   -0.0090    0.0794 C   0  0  0  0  0  4           0  0  0
   -5.0930   -0.0629   -1.1560 C   0  0  0  0  0  4           0  0  0
   -2.1240    0.0020    1.2601 C   0  0  0  0  0  4           0  0  0
   -6.5650   -0.0840   -1.1980 C   0  0  0  0  0  4           0  0  0
   -0.9057    0.5794   -3.4522 C   0  0  0  0  0  4           0  0  0
   -2.2284   -0.1605   -3.6023 C   0  0  1  0  0  4           0  0  0
    2.1567    1.0705    0.6181 C   0  0  0  0  0  4           0  0  0
    2.1549   -1.1818   -0.3668 C   0  0  0  0  0  4           0  0  0
    2.8674    0.5127    1.8566 C   0  0  0  0  0  4           0  0  0
    2.8627   -1.7142    0.8842 C   0  0  0  0  0  4           0  0  0
    4.3605   -1.1837    2.6988 C   0  0  0  0  0  4           0  0  0
   -2.0325   -1.6299   -3.9844 C   0  0  0  0  0  4           0  0  0
  1  9  1  0     0  0
  2 10  2  0     0  0
  3 11  1  0     0  0
  3 19  1  0     0  0
  4 18  2  0     0  0
  5 18  1  0     0  0
  6 12  1  0     0  0
  6 13  1  0     0  0
  6 20  1  0     0  0
  7 14  1  0     0  0
  7 21  1  0     0  0
  7 22  1  0     0  0
  8 23  1  0     0  0
  8 24  1  0     0  0
  8 25  1  0     0  0
  9 14  2  0     0  0
  9 17  1  0     0  0
 10 15  1  0     0  0
 10 16  1  0     0  0
 11 12  2  0     0  0
 11 14  1  0     0  0
 12 15  1  0     0  0
 13 16  2  0     0  0
 15 17  2  0     0  0
 16 18  1  0     0  0
 19 20  1  0     0  0
 20 26  1  0     0  0
 21 23  1  0     0  0
 22 24  1  0     0  0
M  END
> <standard_type>
pIC50

> <# Confs.>
25

> <canonical_smiles>
FC1=C(N2CCN(C)CC2)C3=C4C(C(C(C(O)=O)=CN4C(C)CO3)=O)=C1

> <standard_relation>
=

> <Publication_ID>
nan

> <predicted_activity_value>
nan

> <actual_activity_value>
-3.1522883443830563

> <Compound>
Ofloxacin

> <standard_units>
uM

> hash
9794261068918498007

$$$$
36
XXILIB    08252103503D 0   0.00000     0.00000

 26 29  0     1  0            999 V2000
   -0.0918   -0.0001    2.3904 F   0  0  0  0  0  1           0  0  0
   -4.9182   -0.0261    1.2221 O   0  0  0  0  0  2           0  0  0
   -0.1260   -0.0237   -2.3949 O   0  0  0  0  0  2           0  0  0
   -7.0941    0.1757   -2.4063 O   0  0  0  0  0  2           0  0  0
   -7.2472    0.1083   -0.1459 O   0  0  0  0  0  2           0  0  0
   -2.9703    0.0702   -2.3437 N   0  0  2  0  0  3           0  0  0
    1.3731   -0.0000   -0.0000 N   0  0  2  0  0  3           0  0  0
    3.6831   -0.6642    1.5116 N   0  0  2  0  0  3           0  0  0
   -0.7294    0.0000    1.2084 C   0  0  0  0  0  4           0  0  0
   -4.3448    0.0203    0.1406 C   0  0  0  0  0  4           0  0  0
   -0.7860   -0.0105   -1.1827 C   0  0  0  0  0  4           0  0  0
   -2.2042    0.0219   -1.1594 C   0  0  0  0  0  4           0  0  0
   -4.3488    0.1015   -2.2725 C   0  0  0  0  0  4           0  0  0
   -0.0000    0.0000    0.0000 C   0  0  0  0  0  4           0  0  0
   -2.8584    0.0124    0.0805 C   0  0  0  0  0  4           0  0  0
   -5.0895    0.0806   -1.1543 C   0  0  0  0  0  4           0  0  0
   -2.1242   -0.0006    1.2607 C   0  0  0  0  0  4           0  0  0
   -6.5535    0.1272   -1.3089 C   0  0  0  0  0  4           0  0  0
   -0.9091   -0.5724   -3.4544 C   0  0  0  0  0  4           0  0  0
   -2.2280    0.1749   -3.6007 C   0  0  1  0  0  4           0  0  0
    2.1567    1.0705    0.6181 C   0  0  0  0  0  4           0  0  0
    2.1549   -1.1818   -0.3668 C   0  0  0  0  0  4           0  0  0
    2.8674    0.5127    1.8566 C   0  0  0  0  0  4           0  0  0
    2.8627   -1.7142    0.8842 C   0  0  0  0  0  4           0  0  0
    4.3605   -1.1837    2.6988 C   0  0  0  0  0  4           0  0  0
   -2.0236    1.6465   -3.9698 C   0  0  0  0  0  4           0  0  0
  1  9  1  0     0  0
  2 10  2  0     0  0
  3 11  1  0     0  0
  3 19  1  0     0  0
  4 18  2  0     0  0
  5 18  1  0     0  0
  6 12  1  0     0  0
  6 13  1  0     0  0
  6 20  1  0     0  0
  7 14  1  0     0  0
  7 21  1  0     0  0
  7 22  1  0     0  0
  8 23  1  0     0  0
  8 24  1  0     0  0
  8 25  1  0     0  0
  9 14  2  0     0  0
  9 17  1  0     0  0
 10 15  1  0     0  0
 10 16  1  0     0  0
 11 12  2  0     0  0
 11 14  1  0     0  0
 12 15  1  0     0  0
 13 16  2  0     0  0
 15 17  2  0     0  0
 16 18  1  0     0  0
 19 20  1  0     0  0
 20 26  1  0     0  0
 21 23  1  0     0  0
 22 24  1  0     0  0
M  END
> <standard_type>
pIC50

> <# Confs.>
25

> <canonical_smiles>
FC1=C(N2CCN(C)CC2)C3=C4C(C(C(C(O)=O)=CN4C(C)CO3)=O)=C1

> <standard_relation>
=

> <Publication_ID>
nan

> <predicted_activity_value>
nan

> <actual_activity_value>
-3.1522883443830563

> <Compound>
Ofloxacin

> <standard_units>
uM

> hash
9794261068918498007

$$$$
36
XXILIB    08252103503D 0   0.00000     0.00000

 26 29  0     1  0            999 V2000
   -0.0922    0.0059    2.3897 F   0  0  0  0  0  1           0  0  0
   -4.9155    0.0207    1.2201 O   0  0  0  0  0  2           0  0  0
   -0.1228    0.0102   -2.3907 O   0  0  0  0  0  2           0  0  0
   -7.1783   -0.4729   -2.2117 O   0  0  0  0  0  2           0  0  0
   -7.1440   -0.3536    0.0516 O   0  0  0  0  0  2           0  0  0
   -2.9758   -0.0487   -2.3587 N   0  0  2  0  0  3           0  0  0
    1.3873    0.0000   -0.0000 N   0  0  2  0  0  3           0  0  0
    4.2732   -0.1643    0.1780 N   0  0  2  0  0  3           0  0  0
   -0.7287    0.0000    1.2070 C   0  0  0  0  0  4           0  0  0
   -4.3368   -0.0554    0.1426 C   0  0  0  0  0  4           0  0  0
   -0.7869    0.0111   -1.1836 C   0  0  0  0  0  4           0  0  0
   -2.2055   -0.0145   -1.1686 C   0  0  0  0  0  4           0  0  0
   -4.3506   -0.1946   -2.2620 C   0  0  0  0  0  4           0  0  0
    0.0000    0.0000    0.0000 C   0  0  0  0  0  4           0  0  0
   -2.8550   -0.0188    0.0744 C   0  0  0  0  0  4           0  0  0
   -5.0873   -0.2006   -1.1400 C   0  0  0  0  0  4           0  0  0
   -2.1223   -0.0057    1.2564 C   0  0  0  0  0  4           0  0  0
   -6.5520   -0.3530   -1.1665 C   0  0  0  0  0  4           0  0  0
   -0.8840    0.6181   -3.4288 C   0  0  0  0  0  4           0  0  0
   -2.2057   -0.1217   -3.6144 C   0  0  1  0  0  4           0  0  0
    2.0915   -1.1148   -0.6437 C   0  0  0  0  0  4           0  0  0
    2.0911    0.7203    1.0672 C   0  0  0  0  0  4           0  0  0
    3.5468   -0.7519   -0.9505 C   0  0  0  0  0  4           0  0  0
    3.5458    1.0029    0.6831 C   0  0  0  0  0  4           0  0  0
    4.5615   -1.1398    1.2260 C   0  0  0  0  0  4           0  0  0
   -2.9383    0.4942   -4.8094 C   0  0  0  0  0  4           0  0  0
  1  9  1  0     0  0
  2 10  2  0     0  0
  3 11  1  0     0  0
  3 19  1  0     0  0
  4 18  2  0     0  0
  5 18  1  0     0  0
  6 12  1  0     0  0
  6 13  1  0     0  0
  6 20  1  0     0  0
  7 14  1  0     0  0
  7 21  1  0     0  0
  7 22  1  0     0  0
  8 23  1  0     0  0
  8 24  1  0     0  0
  8 25  1  0     0  0
  9 14  2  0     0  0
  9 17  1  0     0  0
 10 15  1  0     0  0
 10 16  1  0     0  0
 11 12  2  0     0  0
 11 14  1  0     0  0
 12 15  1  0     0  0
 13 16  2  0     0  0
 15 17  2  0     0  0
 16 18  1  0     0  0
 19 20  1  0     0  0
 20 26  1  0     0  0
 21 23  1  0     0  0
 22 24  1  0     0  0
M  END
> <standard_type>
pIC50

> <# Confs.>
25

> <canonical_smiles>
FC1=C(N2CCN(C)CC2)C3=C4C(C(C(C(O)=O)=CN4C(C)CO3)=O)=C1

> <standard_relation>
=

> <Publication_ID>
nan

> <predicted_activity_value>
nan

> <actual_activity_value>
-3.1522883443830563

> <Compound>
Ofloxacin

> <standard_units>
uM

> hash
9794261068918498007

$$$$
36
XXILIB    08252103503D 0   0.00000     0.00000

 26 29  0     1  0            999 V2000
   -0.0921   -0.0053    2.3904 F   0  0  0  0  0  1           0  0  0
   -4.9227    0.0054    1.2161 O   0  0  0  0  0  2           0  0  0
   -0.1252    0.0234   -2.3950 O   0  0  0  0  0  2           0  0  0
   -7.1888   -0.1198   -2.2510 O   0  0  0  0  0  2           0  0  0
   -7.1671   -0.0646    0.0149 O   0  0  0  0  0  2           0  0  0
   -2.9702   -0.0619   -2.3440 N   0  0  2  0  0  3           0  0  0
    1.3731    0.0000    0.0000 N   0  0  2  0  0  3           0  0  0
    3.6831    0.6642   -1.5116 N   0  0  2  0  0  3           0  0  0
   -0.7296    0.0000    1.2082 C   0  0  0  0  0  4           0  0  0
   -4.3416   -0.0192    0.1375 C   0  0  0  0  0  4           0  0  0
   -0.7856    0.0108   -1.1830 C   0  0  0  0  0  4           0  0  0
   -2.2035   -0.0182   -1.1602 C   0  0  0  0  0  4           0  0  0
   -4.3499   -0.0838   -2.2733 C   0  0  0  0  0  4           0  0  0
    0.0000    0.0000    0.0000 C   0  0  0  0  0  4           0  0  0
   -2.8569   -0.0090    0.0794 C   0  0  0  0  0  4           0  0  0
   -5.0930   -0.0629   -1.1560 C   0  0  0  0  0  4           0  0  0
   -2.1240    0.0020    1.2601 C   0  0  0  0  0  4           0  0  0
   -6.5650   -0.0840   -1.1980 C   0  0  0  0  0  4           0  0  0
   -0.9057    0.5794   -3.4522 C   0  0  0  0  0  4           0  0  0
   -2.2284   -0.1605   -3.6023 C   0  0  1  0  0  4           0  0  0
    2.1567   -1.0705   -0.6181 C   0  0  0  0  0  4           0  0  0
    2.1549    1.1818    0.3668 C   0  0  0  0  0  4           0  0  0
    2.8674   -0.5127   -1.8566 C   0  0  0  0  0  4           0  0  0
    2.8627    1.7142   -0.8842 C   0  0  0  0  0  4           0  0  0
    4.3605    1.1837   -2.6988 C   0  0  0  0  0  4           0  0  0
   -2.0325   -1.6299   -3.9844 C   0  0  0  0  0  4           0  0  0
  1  9  1  0     0  0
  2 10  2  0     0  0
  3 11  1  0     0  0
  3 19  1  0     0  0
  4 18  2  0     0  0
  5 18  1  0     0  0
  6 12  1  0     0  0
  6 13  1  0     0  0
  6 20  1  0     0  0
  7 14  1  0     0  0
  7 21  1  0     0  0
  7 22  1  0     0  0
  8 23  1  0     0  0
  8 24  1  0     0  0
  8 25  1  0     0  0
  9 14  2  0     0  0
  9 17  1  0     0  0
 10 15  1  0     0  0
 10 16  1  0     0  0
 11 12  2  0     0  0
 11 14  1  0     0  0
 12 15  1  0     0  0
 13 16  2  0     0  0
 15 17  2  0     0  0
 16 18  1  0     0  0
 19 20  1  0     0  0
 20 26  1  0     0  0
 21 23  1  0     0  0
 22 24  1  0     0  0
M  END
> <standard_type>
pIC50

> <# Confs.>
25

> <canonical_smiles>
FC1=C(N2CCN(C)CC2)C3=C4C(C(C(C(O)=O)=CN4C(C)CO3)=O)=C1

> <standard_relation>
=

> <Publication_ID>
nan

> <predicted_activity_value>
nan

> <actual_activity_value>
-3.1522883443830563

> <Compound>
Ofloxacin

> <standard_units>
uM

> hash
9794261068918498007

$$$$
36
XXILIB    08252103503D 0   0.00000     0.00000

 26 29  0     1  0            999 V2000
   -0.0918   -0.0001    2.3904 F   0  0  0  0  0  1           0  0  0
   -4.9182   -0.0261    1.2221 O   0  0  0  0  0  2           0  0  0
   -0.1260   -0.0237   -2.3949 O   0  0  0  0  0  2           0  0  0
   -7.0941    0.1757   -2.4063 O   0  0  0  0  0  2           0  0  0
   -7.2472    0.1083   -0.1459 O   0  0  0  0  0  2           0  0  0
   -2.9703    0.0702   -2.3437 N   0  0  2  0  0  3           0  0  0
    1.3731    0.0000    0.0000 N   0  0  2  0  0  3           0  0  0
    3.6831    0.6642   -1.5116 N   0  0  2  0  0  3           0  0  0
   -0.7294    0.0000    1.2084 C   0  0  0  0  0  4           0  0  0
   -4.3448    0.0203    0.1406 C   0  0  0  0  0  4           0  0  0
   -0.7860   -0.0105   -1.1827 C   0  0  0  0  0  4           0  0  0
   -2.2042    0.0219   -1.1594 C   0  0  0  0  0  4           0  0  0
   -4.3488    0.1015   -2.2725 C   0  0  0  0  0  4           0  0  0
   -0.0000    0.0000    0.0000 C   0  0  0  0  0  4           0  0  0
   -2.8584    0.0124    0.0805 C   0  0  0  0  0  4           0  0  0
   -5.0895    0.0806   -1.1543 C   0  0  0  0  0  4           0  0  0
   -2.1242   -0.0006    1.2607 C   0  0  0  0  0  4           0  0  0
   -6.5535    0.1272   -1.3089 C   0  0  0  0  0  4           0  0  0
   -0.9091   -0.5724   -3.4544 C   0  0  0  0  0  4           0  0  0
   -2.2280    0.1749   -3.6007 C   0  0  1  0  0  4           0  0  0
    2.1567   -1.0705   -0.6181 C   0  0  0  0  0  4           0  0  0
    2.1549    1.1818    0.3668 C   0  0  0  0  0  4           0  0  0
    2.8674   -0.5127   -1.8566 C   0  0  0  0  0  4           0  0  0
    2.8627    1.7142   -0.8842 C   0  0  0  0  0  4           0  0  0
    4.3605    1.1837   -2.6988 C   0  0  0  0  0  4           0  0  0
   -2.0236    1.6465   -3.9698 C   0  0  0  0  0  4           0  0  0
  1  9  1  0     0  0
  2 10  2  0     0  0
  3 11  1  0     0  0
  3 19  1  0     0  0
  4 18  2  0     0  0
  5 18  1  0     0  0
  6 12  1  0     0  0
  6 13  1  0     0  0
  6 20  1  0     0  0
  7 14  1  0     0  0
  7 21  1  0     0  0
  7 22  1  0     0  0
  8 23  1  0     0  0
  8 24  1  0     0  0
  8 25  1  0     0  0
  9 14  2  0     0  0
  9 17  1  0     0  0
 10 15  1  0     0  0
 10 16  1  0     0  0
 11 12  2  0     0  0
 11 14  1  0     0  0
 12 15  1  0     0  0
 13 16  2  0     0  0
 15 17  2  0     0  0
 16 18  1  0     0  0
 19 20  1  0     0  0
 20 26  1  0     0  0
 21 23  1  0     0  0
 22 24  1  0     0  0
M  END
> <standard_type>
pIC50

> <# Confs.>
25

> <canonical_smiles>
FC1=C(N2CCN(C)CC2)C3=C4C(C(C(C(O)=O)=CN4C(C)CO3)=O)=C1

> <standard_relation>
=

> <Publication_ID>
nan

> <predicted_activity_value>
nan

> <actual_activity_value>
-3.1522883443830563

> <Compound>
Ofloxacin

> <standard_units>
uM

> hash
9794261068918498007

$$$$
36
XXILIB    08252103503D 0   0.00000     0.00000

 26 29  0     1  0            999 V2000
   -0.0922    0.0059    2.3897 F   0  0  0  0  0  1           0  0  0
   -4.9155    0.0207    1.2201 O   0  0  0  0  0  2           0  0  0
   -0.1228    0.0102   -2.3907 O   0  0  0  0  0  2           0  0  0
   -7.1783   -0.4729   -2.2117 O   0  0  0  0  0  2           0  0  0
   -7.1440   -0.3536    0.0516 O   0  0  0  0  0  2           0  0  0
   -2.9758   -0.0487   -2.3587 N   0  0  2  0  0  3           0  0  0
    1.3873   -0.0000    0.0000 N   0  0  2  0  0  3           0  0  0
    4.2732    0.1643   -0.1780 N   0  0  2  0  0  3           0  0  0
   -0.7287    0.0000    1.2070 C   0  0  0  0  0  4           0  0  0
   -4.3368   -0.0554    0.1426 C   0  0  0  0  0  4           0  0  0
   -0.7869    0.0111   -1.1836 C   0  0  0  0  0  4           0  0  0
   -2.2055   -0.0145   -1.1686 C   0  0  0  0  0  4           0  0  0
   -4.3506   -0.1946   -2.2620 C   0  0  0  0  0  4           0  0  0
    0.0000    0.0000    0.0000 C   0  0  0  0  0  4           0  0  0
   -2.8550   -0.0188    0.0744 C   0  0  0  0  0  4           0  0  0
   -5.0873   -0.2006   -1.1400 C   0  0  0  0  0  4           0  0  0
   -2.1223   -0.0057    1.2564 C   0  0  0  0  0  4           0  0  0
   -6.5520   -0.3530   -1.1665 C   0  0  0  0  0  4           0  0  0
   -0.8840    0.6181   -3.4288 C   0  0  0  0  0  4           0  0  0
   -2.2057   -0.1217   -3.6144 C   0  0  1  0  0  4           0  0  0
    2.0915    1.1148    0.6437 C   0  0  0  0  0  4           0  0  0
    2.0911   -0.7203   -1.0672 C   0  0  0  0  0  4           0  0  0
    3.5468    0.7519    0.9505 C   0  0  0  0  0  4           0  0  0
    3.5458   -1.0029   -0.6831 C   0  0  0  0  0  4           0  0  0
    4.5615    1.1398   -1.2260 C   0  0  0  0  0  4           0  0  0
   -2.9383    0.4942   -4.8094 C   0  0  0  0  0  4           0  0  0
  1  9  1  0     0  0
  2 10  2  0     0  0
  3 11  1  0     0  0
  3 19  1  0     0  0
  4 18  2  0     0  0
  5 18  1  0     0  0
  6 12  1  0     0  0
  6 13  1  0     0  0
  6 20  1  0     0  0
  7 14  1  0     0  0
  7 21  1  0     0  0
  7 22  1  0     0  0
  8 23  1  0     0  0
  8 24  1  0     0  0
  8 25  1  0     0  0
  9 14  2  0     0  0
  9 17  1  0     0  0
 10 15  1  0     0  0
 10 16  1  0     0  0
 11 12  2  0     0  0
 11 14  1  0     0  0
 12 15  1  0     0  0
 13 16  2  0     0  0
 15 17  2  0     0  0
 16 18  1  0     0  0
 19 20  1  0     0  0
 20 26  1  0     0  0
 21 23  1  0     0  0
 22 24  1  0     0  0
M  END
> <standard_type>
pIC50

> <# Confs.>
25

> <canonical_smiles>
FC1=C(N2CCN(C)CC2)C3=C4C(C(C(C(O)=O)=CN4C(C)CO3)=O)=C1

> <standard_relation>
=

> <Publication_ID>
nan

> <predicted_activity_value>
nan

> <actual_activity_value>
-3.1522883443830563

> <Compound>
Ofloxacin

> <standard_units>
uM

> hash
9794261068918498007

$$$$
36
XXILIB    08252103503D 0   0.00000     0.00000

 26 29  0     1  0            999 V2000
   -0.0922    0.0059    2.3897 F   0  0  0  0  0  1           0  0  0
   -4.9155    0.0207    1.2201 O   0  0  0  0  0  2           0  0  0
   -0.1228    0.0102   -2.3907 O   0  0  0  0  0  2           0  0  0
   -7.1783   -0.4729   -2.2117 O   0  0  0  0  0  2           0  0  0
   -7.1440   -0.3536    0.0516 O   0  0  0  0  0  2           0  0  0
   -2.9758   -0.0487   -2.3587 N   0  0  2  0  0  3           0  0  0
    1.3873   -0.0000   -0.0000 N   0  0  2  0  0  3           0  0  0
    4.2732    0.0720    0.2313 N   0  0  2  0  0  3           0  0  0
   -0.7287    0.0000    1.2070 C   0  0  0  0  0  4           0  0  0
   -4.3368   -0.0554    0.1426 C   0  0  0  0  0  4           0  0  0
   -0.7869    0.0111   -1.1836 C   0  0  0  0  0  4           0  0  0
   -2.2055   -0.0145   -1.1686 C   0  0  0  0  0  4           0  0  0
   -4.3506   -0.1946   -2.2620 C   0  0  0  0  0  4           0  0  0
    0.0000    0.0000    0.0000 C   0  0  0  0  0  4           0  0  0
   -2.8550   -0.0188    0.0744 C   0  0  0  0  0  4           0  0  0
   -5.0873   -0.2006   -1.1400 C   0  0  0  0  0  4           0  0  0
   -2.1223   -0.0057    1.2564 C   0  0  0  0  0  4           0  0  0
   -6.5520   -0.3530   -1.1665 C   0  0  0  0  0  4           0  0  0
   -0.8840    0.6181   -3.4288 C   0  0  0  0  0  4           0  0  0
   -2.2057   -0.1217   -3.6144 C   0  0  1  0  0  4           0  0  0
    2.0915   -1.1148    0.6437 C   0  0  0  0  0  4           0  0  0
    2.0911    1.2844   -0.0902 C   0  0  0  0  0  4           0  0  0
    3.5468   -1.1991    0.1759 C   0  0  0  0  0  4           0  0  0
    3.5458    1.0930   -0.5270 C   0  0  0  0  0  4           0  0  0
    4.5615    0.4919    1.6001 C   0  0  0  0  0  4           0  0  0
   -2.9383    0.4942   -4.8094 C   0  0  0  0  0  4           0  0  0
  1  9  1  0     0  0
  2 10  2  0     0  0
  3 11  1  0     0  0
  3 19  1  0     0  0
  4 18  2  0     0  0
  5 18  1  0     0  0
  6 12  1  0     0  0
  6 13  1  0     0  0
  6 20  1  0     0  0
  7 14  1  0     0  0
  7 21  1  0     0  0
  7 22  1  0     0  0
  8 23  1  0     0  0
  8 24  1  0     0  0
  8 25  1  0     0  0
  9 14  2  0     0  0
  9 17  1  0     0  0
 10 15  1  0     0  0
 10 16  1  0     0  0
 11 12  2  0     0  0
 11 14  1  0     0  0
 12 15  1  0     0  0
 13 16  2  0     0  0
 15 17  2  0     0  0
 16 18  1  0     0  0
 19 20  1  0     0  0
 20 26  1  0     0  0
 21 23  1  0     0  0
 22 24  1  0     0  0
M  END
> <standard_type>
pIC50

> <# Confs.>
25

> <canonical_smiles>
FC1=C(N2CCN(C)CC2)C3=C4C(C(C(C(O)=O)=CN4C(C)CO3)=O)=C1

> <standard_relation>
=

> <Publication_ID>
nan

> <predicted_activity_value>
nan

> <actual_activity_value>
-3.1522883443830563

> <Compound>
Ofloxacin

> <standard_units>
uM

> hash
9794261068918498007

$$$$
36
XXILIB    08252103503D 0   0.00000     0.00000

 26 29  0     1  0            999 V2000
   -0.0922    0.0059    2.3897 F   0  0  0  0  0  1           0  0  0
   -4.9155    0.0207    1.2201 O   0  0  0  0  0  2           0  0  0
   -0.1228    0.0102   -2.3907 O   0  0  0  0  0  2           0  0  0
   -7.1783   -0.4729   -2.2117 O   0  0  0  0  0  2           0  0  0
   -7.1440   -0.3536    0.0516 O   0  0  0  0  0  2           0  0  0
   -2.9758   -0.0487   -2.3587 N   0  0  2  0  0  3           0  0  0
    1.3873    0.0000    0.0000 N   0  0  2  0  0  3           0  0  0
    4.2732   -0.0720   -0.2313 N   0  0  2  0  0  3           0  0  0
   -0.7287    0.0000    1.2070 C   0  0  0  0  0  4           0  0  0
   -4.3368   -0.0554    0.1426 C   0  0  0  0  0  4           0  0  0
   -0.7869    0.0111   -1.1836 C   0  0  0  0  0  4           0  0  0
   -2.2055   -0.0145   -1.1686 C   0  0  0  0  0  4           0  0  0
   -4.3506   -0.1946   -2.2620 C   0  0  0  0  0  4           0  0  0
    0.0000    0.0000    0.0000 C   0  0  0  0  0  4           0  0  0
   -2.8550   -0.0188    0.0744 C   0  0  0  0  0  4           0  0  0
   -5.0873   -0.2006   -1.1400 C   0  0  0  0  0  4           0  0  0
   -2.1223   -0.0057    1.2564 C   0  0  0  0  0  4           0  0  0
   -6.5520   -0.3530   -1.1665 C   0  0  0  0  0  4           0  0  0
   -0.8840    0.6181   -3.4288 C   0  0  0  0  0  4           0  0  0
   -2.2057   -0.1217   -3.6144 C   0  0  1  0  0  4           0  0  0
    2.0915    1.1148   -0.6437 C   0  0  0  0  0  4           0  0  0
    2.0911   -1.2844    0.0902 C   0  0  0  0  0  4           0  0  0
    3.5468    1.1991   -0.1759 C   0  0  0  0  0  4           0  0  0
    3.5458   -1.0930    0.5270 C   0  0  0  0  0  4           0  0  0
    4.5615   -0.4919   -1.6001 C   0  0  0  0  0  4           0  0  0
   -2.9383    0.4942   -4.8094 C   0  0  0  0  0  4           0  0  0
  1  9  1  0     0  0
  2 10  2  0     0  0
  3 11  1  0     0  0
  3 19  1  0     0  0
  4 18  2  0     0  0
  5 18  1  0     0  0
  6 12  1  0     0  0
  6 13  1  0     0  0
  6 20  1  0     0  0
  7 14  1  0     0  0
  7 21  1  0     0  0
  7 22  1  0     0  0
  8 23  1  0     0  0
  8 24  1  0     0  0
  8 25  1  0     0  0
  9 14  2  0     0  0
  9 17  1  0     0  0
 10 15  1  0     0  0
 10 16  1  0     0  0
 11 12  2  0     0  0
 11 14  1  0     0  0
 12 15  1  0     0  0
 13 16  2  0     0  0
 15 17  2  0     0  0
 16 18  1  0     0  0
 19 20  1  0     0  0
 20 26  1  0     0  0
 21 23  1  0     0  0
 22 24  1  0     0  0
M  END
> <standard_type>
pIC50

> <# Confs.>
25

> <canonical_smiles>
FC1=C(N2CCN(C)CC2)C3=C4C(C(C(C(O)=O)=CN4C(C)CO3)=O)=C1

> <standard_relation>
=

> <Publication_ID>
nan

> <predicted_activity_value>
nan

> <actual_activity_value>
-3.1522883443830563

> <Compound>
Ofloxacin

> <standard_units>
uM

> hash
9794261068918498007

$$$$
36
XXILIB    08252103503D 0   0.00000     0.00000

 26 29  0     1  0            999 V2000
   -0.0913   -0.0006    2.3900 F   0  0  0  0  0  1           0  0  0
   -4.9092   -0.0367    1.2249 O   0  0  0  0  0  2           0  0  0
   -0.1230   -0.0164   -2.3915 O   0  0  0  0  0  2           0  0  0
   -7.0376    1.0271   -2.1932 O   0  0  0  0  0  2           0  0  0
   -7.2715   -0.2082   -0.3072 O   0  0  0  0  0  2           0  0  0
   -2.9751    0.0586   -2.3586 N   0  0  2  0  0  3           0  0  0
    1.3849    0.0000    0.0000 N   0  0  2  0  0  3           0  0  0
    4.2321    0.1453   -0.1622 N   0  0  2  0  0  3           0  0  0
   -0.7282    0.0000    1.2074 C   0  0  0  0  0  4           0  0  0
   -4.3376    0.0592    0.1459 C   0  0  0  0  0  4           0  0  0
   -0.7868   -0.0103   -1.1838 C   0  0  0  0  0  4           0  0  0
   -2.2050    0.0192   -1.1681 C   0  0  0  0  0  4           0  0  0
   -4.3475    0.2133   -2.2606 C   0  0  0  0  0  4           0  0  0
   -0.0000    0.0000    0.0000 C   0  0  0  0  0  4           0  0  0
   -2.8547    0.0223    0.0757 C   0  0  0  0  0  4           0  0  0
   -5.0806    0.2215   -1.1369 C   0  0  0  0  0  4           0  0  0
   -2.1214    0.0056    1.2574 C   0  0  0  0  0  4           0  0  0
   -6.5370    0.3927   -1.2735 C   0  0  0  0  0  4           0  0  0
   -0.8895   -0.6179   -3.4298 C   0  0  0  0  0  4           0  0  0
   -2.2057    0.1317   -3.6139 C   0  0  1  0  0  4           0  0  0
    2.0993    1.1098    0.6407 C   0  0  0  0  0  4           0  0  0
    2.0987   -0.7140   -1.0639 C   0  0  0  0  0  4           0  0  0
    3.5321    0.7082    0.9984 C   0  0  0  0  0  4           0  0  0
    3.5267   -1.0523   -0.6320 C   0  0  0  0  0  4           0  0  0
    5.6167   -0.1765    0.1819 C   0  0  0  0  0  4           0  0  0
   -2.9427   -0.4748   -4.8107 C   0  0  0  0  0  4           0  0  0
  1  9  1  0     0  0
  2 10  2  0     0  0
  3 11  1  0     0  0
  3 19  1  0     0  0
  4 18  2  0     0  0
  5 18  1  0     0  0
  6 12  1  0     0  0
  6 13  1  0     0  0
  6 20  1  0     0  0
  7 14  1  0     0  0
  7 21  1  0     0  0
  7 22  1  0     0  0
  8 23  1  0     0  0
  8 24  1  0     0  0
  8 25  1  0     0  0
  9 14  2  0     0  0
  9 17  1  0     0  0
 10 15  1  0     0  0
 10 16  1  0     0  0
 11 12  2  0     0  0
 11 14  1  0     0  0
 12 15  1  0     0  0
 13 16  2  0     0  0
 15 17  2  0     0  0
 16 18  1  0     0  0
 19 20  1  0     0  0
 20 26  1  0     0  0
 21 23  1  0     0  0
 22 24  1  0     0  0
M  END
> <standard_type>
pIC50

> <# Confs.>
25

> <canonical_smiles>
FC1=C(N2CCN(C)CC2)C3=C4C(C(C(C(O)=O)=CN4C(C)CO3)=O)=C1

> <standard_relation>
=

> <Publication_ID>
nan

> <predicted_activity_value>
nan

> <actual_activity_value>
-3.1522883443830563

> <Compound>
Ofloxacin

> <standard_units>
uM

> hash
9794261068918498007

$$$$
36
XXILIB    08252103503D 0   0.00000     0.00000

 26 29  0     1  0            999 V2000
   -0.0913   -0.0006    2.3900 F   0  0  0  0  0  1           0  0  0
   -4.9092   -0.0367    1.2249 O   0  0  0  0  0  2           0  0  0
   -0.1230   -0.0164   -2.3915 O   0  0  0  0  0  2           0  0  0
   -7.0376    1.0271   -2.1932 O   0  0  0  0  0  2           0  0  0
   -7.2715   -0.2082   -0.3072 O   0  0  0  0  0  2           0  0  0
   -2.9751    0.0586   -2.3586 N   0  0  2  0  0  3           0  0  0
    1.3849    0.0000    0.0000 N   0  0  2  0  0  3           0  0  0
    4.2321    0.0678    0.2069 N   0  0  2  0  0  3           0  0  0
   -0.7282    0.0000    1.2074 C   0  0  0  0  0  4           0  0  0
   -4.3376    0.0592    0.1459 C   0  0  0  0  0  4           0  0  0
   -0.7868   -0.0103   -1.1838 C   0  0  0  0  0  4           0  0  0
   -2.2050    0.0192   -1.1681 C   0  0  0  0  0  4           0  0  0
   -4.3475    0.2133   -2.2606 C   0  0  0  0  0  4           0  0  0
   -0.0000    0.0000    0.0000 C   0  0  0  0  0  4           0  0  0
   -2.8547    0.0223    0.0757 C   0  0  0  0  0  4           0  0  0
   -5.0806    0.2215   -1.1369 C   0  0  0  0  0  4           0  0  0
   -2.1214    0.0056    1.2574 C   0  0  0  0  0  4           0  0  0
   -6.5370    0.3927   -1.2735 C   0  0  0  0  0  4           0  0  0
   -0.8895   -0.6179   -3.4298 C   0  0  0  0  0  4           0  0  0
   -2.2057    0.1317   -3.6139 C   0  0  1  0  0  4           0  0  0
    2.0993   -1.1098    0.6407 C   0  0  0  0  0  4           0  0  0
    2.0987    1.2783   -0.0864 C   0  0  0  0  0  4           0  0  0
    3.5321   -1.2187    0.1141 C   0  0  0  0  0  4           0  0  0
    3.5267    1.0735   -0.5954 C   0  0  0  0  0  4           0  0  0
    5.6167   -0.0692   -0.2438 C   0  0  0  0  0  4           0  0  0
   -2.9427   -0.4748   -4.8107 C   0  0  0  0  0  4           0  0  0
  1  9  1  0     0  0
  2 10  2  0     0  0
  3 11  1  0     0  0
  3 19  1  0     0  0
  4 18  2  0     0  0
  5 18  1  0     0  0
  6 12  1  0     0  0
  6 13  1  0     0  0
  6 20  1  0     0  0
  7 14  1  0     0  0
  7 21  1  0     0  0
  7 22  1  0     0  0
  8 23  1  0     0  0
  8 24  1  0     0  0
  8 25  1  0     0  0
  9 14  2  0     0  0
  9 17  1  0     0  0
 10 15  1  0     0  0
 10 16  1  0     0  0
 11 12  2  0     0  0
 11 14  1  0     0  0
 12 15  1  0     0  0
 13 16  2  0     0  0
 15 17  2  0     0  0
 16 18  1  0     0  0
 19 20  1  0     0  0
 20 26  1  0     0  0
 21 23  1  0     0  0
 22 24  1  0     0  0
M  END
> <standard_type>
pIC50

> <# Confs.>
25

> <canonical_smiles>
FC1=C(N2CCN(C)CC2)C3=C4C(C(C(C(O)=O)=CN4C(C)CO3)=O)=C1

> <standard_relation>
=

> <Publication_ID>
nan

> <predicted_activity_value>
nan

> <actual_activity_value>
-3.1522883443830563

> <Compound>
Ofloxacin

> <standard_units>
uM

> hash
9794261068918498007

$$$$
36
XXILIB    08252103503D 0   0.00000     0.00000

 26 29  0     1  0            999 V2000
   -0.0913   -0.0006    2.3900 F   0  0  0  0  0  1           0  0  0
   -4.9092   -0.0367    1.2249 O   0  0  0  0  0  2           0  0  0
   -0.1230   -0.0164   -2.3915 O   0  0  0  0  0  2           0  0  0
   -7.0812    0.5207   -2.3627 O   0  0  0  0  0  2           0  0  0
   -7.2199    0.3929   -0.1039 O   0  0  0  0  0  2           0  0  0
   -2.9751    0.0586   -2.3586 N   0  0  2  0  0  3           0  0  0
    1.3731    0.0000    0.0000 N   0  0  2  0  0  3           0  0  0
    3.6831   -0.1806   -1.6412 N   0  0  2  0  0  3           0  0  0
   -0.7282    0.0000    1.2074 C   0  0  0  0  0  4           0  0  0
   -4.3376    0.0592    0.1459 C   0  0  0  0  0  4           0  0  0
   -0.7868   -0.0103   -1.1838 C   0  0  0  0  0  4           0  0  0
   -2.2050    0.0192   -1.1681 C   0  0  0  0  0  4           0  0  0
   -4.3475    0.2133   -2.2606 C   0  0  0  0  0  4           0  0  0
   -0.0000    0.0000    0.0000 C   0  0  0  0  0  4           0  0  0
   -2.8547    0.0223    0.0757 C   0  0  0  0  0  4           0  0  0
   -5.0806    0.2215   -1.1369 C   0  0  0  0  0  4           0  0  0
   -2.1214    0.0056    1.2574 C   0  0  0  0  0  4           0  0  0
   -6.5370    0.3927   -1.2735 C   0  0  0  0  0  4           0  0  0
   -0.8895   -0.6179   -3.4298 C   0  0  0  0  0  4           0  0  0
   -2.2057    0.1317   -3.6139 C   0  0  1  0  0  4           0  0  0
    2.1567   -1.2361    0.0000 C   0  0  0  0  0  4           0  0  0
    2.1549    1.2069   -0.2732 C   0  0  0  0  0  4           0  0  0
    2.8674   -1.3723   -1.3515 C   0  0  0  0  0  4           0  0  0
    2.8627    1.0424   -1.6228 C   0  0  0  0  0  4           0  0  0
    4.3605   -0.3242   -2.9291 C   0  0  0  0  0  4           0  0  0
   -2.9427   -0.4748   -4.8107 C   0  0  0  0  0  4           0  0  0
  1  9  1  0     0  0
  2 10  2  0     0  0
  3 11  1  0     0  0
  3 19  1  0     0  0
  4 18  2  0     0  0
  5 18  1  0     0  0
  6 12  1  0     0  0
  6 13  1  0     0  0
  6 20  1  0     0  0
  7 14  1  0     0  0
  7 21  1  0     0  0
  7 22  1  0     0  0
  8 23  1  0     0  0
  8 24  1  0     0  0
  8 25  1  0     0  0
  9 14  2  0     0  0
  9 17  1  0     0  0
 10 15  1  0     0  0
 10 16  1  0     0  0
 11 12  2  0     0  0
 11 14  1  0     0  0
 12 15  1  0     0  0
 13 16  2  0     0  0
 15 17  2  0     0  0
 16 18  1  0     0  0
 19 20  1  0     0  0
 20 26  1  0     0  0
 21 23  1  0     0  0
 22 24  1  0     0  0
M  END
> <standard_type>
pIC50

> <# Confs.>
25

> <canonical_smiles>
FC1=C(N2CCN(C)CC2)C3=C4C(C(C(C(O)=O)=CN4C(C)CO3)=O)=C1

> <standard_relation>
=

> <Publication_ID>
nan

> <predicted_activity_value>
nan

> <actual_activity_value>
-3.1522883443830563

> <Compound>
Ofloxacin

> <standard_units>
uM

> hash
9794261068918498007

$$$$
36
XXILIB    08252103503D 0   0.00000     0.00000

 26 29  0     1  0            999 V2000
   -0.0913   -0.0006    2.3900 F   0  0  0  0  0  1           0  0  0
   -4.9092   -0.0367    1.2249 O   0  0  0  0  0  2           0  0  0
   -0.1230   -0.0164   -2.3915 O   0  0  0  0  0  2           0  0  0
   -7.0812    0.5207   -2.3627 O   0  0  0  0  0  2           0  0  0
   -7.2199    0.3929   -0.1039 O   0  0  0  0  0  2           0  0  0
   -2.9751    0.0586   -2.3586 N   0  0  2  0  0  3           0  0  0
    1.3834    0.0000   -0.0000 N   0  0  2  0  0  3           0  0  0
    3.2355    1.5752    1.4893 N   0  0  2  0  0  3           0  0  0
   -0.7282    0.0000    1.2074 C   0  0  0  0  0  4           0  0  0
   -4.3376    0.0592    0.1459 C   0  0  0  0  0  4           0  0  0
   -0.7868   -0.0103   -1.1838 C   0  0  0  0  0  4           0  0  0
   -2.2050    0.0192   -1.1681 C   0  0  0  0  0  4           0  0  0
   -4.3475    0.2133   -2.2606 C   0  0  0  0  0  4           0  0  0
   -0.0000    0.0000    0.0000 C   0  0  0  0  0  4           0  0  0
   -2.8547    0.0223    0.0757 C   0  0  0  0  0  4           0  0  0
   -5.0806    0.2215   -1.1369 C   0  0  0  0  0  4           0  0  0
   -2.1214    0.0056    1.2574 C   0  0  0  0  0  4           0  0  0
   -6.5370    0.3927   -1.2735 C   0  0  0  0  0  4           0  0  0
   -0.8895   -0.6179   -3.4298 C   0  0  0  0  0  4           0  0  0
   -2.2057    0.1317   -3.6139 C   0  0  1  0  0  4           0  0  0
    2.0678    1.1184   -0.6457 C   0  0  0  0  0  4           0  0  0
    2.0688   -0.5822    1.1520 C   0  0  0  0  0  4           0  0  0
    2.4636    2.1765    0.3897 C   0  0  0  0  0  4           0  0  0
    2.4647    0.5101    2.1510 C   0  0  0  0  0  4           0  0  0
    3.6322    2.5977    2.4567 C   0  0  0  0  0  4           0  0  0
   -2.9427   -0.4748   -4.8107 C   0  0  0  0  0  4           0  0  0
  1  9  1  0     0  0
  2 10  2  0     0  0
  3 11  1  0     0  0
  3 19  1  0     0  0
  4 18  2  0     0  0
  5 18  1  0     0  0
  6 12  1  0     0  0
  6 13  1  0     0  0
  6 20  1  0     0  0
  7 14  1  0     0  0
  7 21  1  0     0  0
  7 22  1  0     0  0
  8 23  1  0     0  0
  8 24  1  0     0  0
  8 25  1  0     0  0
  9 14  2  0     0  0
  9 17  1  0     0  0
 10 15  1  0     0  0
 10 16  1  0     0  0
 11 12  2  0     0  0
 11 14  1  0     0  0
 12 15  1  0     0  0
 13 16  2  0     0  0
 15 17  2  0     0  0
 16 18  1  0     0  0
 19 20  1  0     0  0
 20 26  1  0     0  0
 21 23  1  0     0  0
 22 24  1  0     0  0
M  END
> <standard_type>
pIC50

> <# Confs.>
25

> <canonical_smiles>
FC1=C(N2CCN(C)CC2)C3=C4C(C(C(C(O)=O)=CN4C(C)CO3)=O)=C1

> <standard_relation>
=

> <Publication_ID>
nan

> <predicted_activity_value>
nan

> <actual_activity_value>
-3.1522883443830563

> <Compound>
Ofloxacin

> <standard_units>
uM

> hash
9794261068918498007

$$$$
36
XXILIB    08252103503D 0   0.00000     0.00000

 26 29  0     1  0            999 V2000
   -0.0922    0.0059    2.3897 F   0  0  0  0  0  1           0  0  0
   -4.9155    0.0207    1.2201 O   0  0  0  0  0  2           0  0  0
   -0.1228    0.0102   -2.3907 O   0  0  0  0  0  2           0  0  0
   -7.1783   -0.4729   -2.2117 O   0  0  0  0  0  2           0  0  0
   -7.1440   -0.3536    0.0516 O   0  0  0  0  0  2           0  0  0
   -2.9758   -0.0487   -2.3587 N   0  0  2  0  0  3           0  0  0
    1.3831   -0.0000   -0.0000 N   0  0  2  0  0  3           0  0  0
    3.2563    1.5739    1.5292 N   0  0  2  0  0  3           0  0  0
   -0.7287    0.0000    1.2070 C   0  0  0  0  0  4           0  0  0
   -4.3368   -0.0554    0.1426 C   0  0  0  0  0  4           0  0  0
   -0.7869    0.0111   -1.1836 C   0  0  0  0  0  4           0  0  0
   -2.2055   -0.0145   -1.1686 C   0  0  0  0  0  4           0  0  0
   -4.3506   -0.1946   -2.2620 C   0  0  0  0  0  4           0  0  0
    0.0000    0.0000    0.0000 C   0  0  0  0  0  4           0  0  0
   -2.8550   -0.0188    0.0744 C   0  0  0  0  0  4           0  0  0
   -5.0873   -0.2006   -1.1400 C   0  0  0  0  0  4           0  0  0
   -2.1223   -0.0057    1.2564 C   0  0  0  0  0  4           0  0  0
   -6.5520   -0.3530   -1.1665 C   0  0  0  0  0  4           0  0  0
   -0.8840    0.6181   -3.4288 C   0  0  0  0  0  4           0  0  0
   -2.2057   -0.1217   -3.6144 C   0  0  1  0  0  4           0  0  0
    2.0678    1.1180   -0.6455 C   0  0  0  0  0  4           0  0  0
    2.0682   -0.6120    1.1362 C   0  0  0  0  0  4           0  0  0
    2.5123    2.1496    0.3984 C   0  0  0  0  0  4           0  0  0
    2.5104    0.4615    2.1375 C   0  0  0  0  0  4           0  0  0
    4.6161    1.1894    1.1576 C   0  0  0  0  0  4           0  0  0
   -2.9383    0.4942   -4.8094 C   0  0  0  0  0  4           0  0  0
  1  9  1  0     0  0
  2 10  2  0     0  0
  3 11  1  0     0  0
  3 19  1  0     0  0
  4 18  2  0     0  0
  5 18  1  0     0  0
  6 12  1  0     0  0
  6 13  1  0     0  0
  6 20  1  0     0  0
  7 14  1  0     0  0
  7 21  1  0     0  0
  7 22  1  0     0  0
  8 23  1  0     0  0
  8 24  1  0     0  0
  8 25  1  0     0  0
  9 14  2  0     0  0
  9 17  1  0     0  0
 10 15  1  0     0  0
 10 16  1  0     0  0
 11 12  2  0     0  0
 11 14  1  0     0  0
 12 15  1  0     0  0
 13 16  2  0     0  0
 15 17  2  0     0  0
 16 18  1  0     0  0
 19 20  1  0     0  0
 20 26  1  0     0  0
 21 23  1  0     0  0
 22 24  1  0     0  0
M  END
> <standard_type>
pIC50

> <# Confs.>
25

> <canonical_smiles>
FC1=C(N2CCN(C)CC2)C3=C4C(C(C(C(O)=O)=CN4C(C)CO3)=O)=C1

> <standard_relation>
=

> <Publication_ID>
nan

> <predicted_activity_value>
nan

> <actual_activity_value>
-3.1522883443830563

> <Compound>
Ofloxacin

> <standard_units>
uM

> hash
9794261068918498007

$$$$
36
XXILIB    08252103503D 0   0.00000     0.00000

 26 29  0     1  0            999 V2000
   -0.0922    0.0059    2.3897 F   0  0  0  0  0  1           0  0  0
   -4.9155    0.0207    1.2201 O   0  0  0  0  0  2           0  0  0
   -0.1228    0.0102   -2.3907 O   0  0  0  0  0  2           0  0  0
   -7.1285   -0.9800   -2.0460 O   0  0  0  0  0  2           0  0  0
   -7.2032    0.2496   -0.1433 O   0  0  0  0  0  2           0  0  0
   -2.9758   -0.0487   -2.3587 N   0  0  2  0  0  3           0  0  0
    1.3731   -0.0000   -0.0000 N   0  0  2  0  0  3           0  0  0
    3.6831    0.1806    1.6412 N   0  0  2  0  0  3           0  0  0
   -0.7287    0.0000    1.2070 C   0  0  0  0  0  4           0  0  0
   -4.3368   -0.0554    0.1426 C   0  0  0  0  0  4           0  0  0
   -0.7869    0.0111   -1.1836 C   0  0  0  0  0  4           0  0  0
   -2.2055   -0.0145   -1.1686 C   0  0  0  0  0  4           0  0  0
   -4.3506   -0.1946   -2.2620 C   0  0  0  0  0  4           0  0  0
    0.0000    0.0000    0.0000 C   0  0  0  0  0  4           0  0  0
   -2.8550   -0.0188    0.0744 C   0  0  0  0  0  4           0  0  0
   -5.0873   -0.2006   -1.1400 C   0  0  0  0  0  4           0  0  0
   -2.1223   -0.0057    1.2564 C   0  0  0  0  0  4           0  0  0
   -6.5520   -0.3530   -1.1665 C   0  0  0  0  0  4           0  0  0
   -0.8840    0.6181   -3.4288 C   0  0  0  0  0  4           0  0  0
   -2.2057   -0.1217   -3.6144 C   0  0  1  0  0  4           0  0  0
    2.1567    1.2361    0.0000 C   0  0  0  0  0  4           0  0  0
    2.1549   -1.2069    0.2732 C   0  0  0  0  0  4           0  0  0
    2.8674    1.3723    1.3515 C   0  0  0  0  0  4           0  0  0
    2.8627   -1.0424    1.6228 C   0  0  0  0  0  4           0  0  0
    4.3605    0.3242    2.9291 C   0  0  0  0  0  4           0  0  0
   -2.9383    0.4942   -4.8094 C   0  0  0  0  0  4           0  0  0
  1  9  1  0     0  0
  2 10  2  0     0  0
  3 11  1  0     0  0
  3 19  1  0     0  0
  4 18  2  0     0  0
  5 18  1  0     0  0
  6 12  1  0     0  0
  6 13  1  0     0  0
  6 20  1  0     0  0
  7 14  1  0     0  0
  7 21  1  0     0  0
  7 22  1  0     0  0
  8 23  1  0     0  0
  8 24  1  0     0  0
  8 25  1  0     0  0
  9 14  2  0     0  0
  9 17  1  0     0  0
 10 15  1  0     0  0
 10 16  1  0     0  0
 11 12  2  0     0  0
 11 14  1  0     0  0
 12 15  1  0     0  0
 13 16  2  0     0  0
 15 17  2  0     0  0
 16 18  1  0     0  0
 19 20  1  0     0  0
 20 26  1  0     0  0
 21 23  1  0     0  0
 22 24  1  0     0  0
M  END
> <standard_type>
pIC50

> <# Confs.>
25

> <canonical_smiles>
FC1=C(N2CCN(C)CC2)C3=C4C(C(C(C(O)=O)=CN4C(C)CO3)=O)=C1

> <standard_relation>
=

> <Publication_ID>
nan

> <predicted_activity_value>
nan

> <actual_activity_value>
-3.1522883443830563

> <Compound>
Ofloxacin

> <standard_units>
uM

> hash
9794261068918498007

$$$$
36
XXILIB    08252103503D 0   0.00000     0.00000

 26 29  0     1  0            999 V2000
   -0.0913   -0.0006    2.3900 F   0  0  0  0  0  1           0  0  0
   -4.9092   -0.0367    1.2249 O   0  0  0  0  0  2           0  0  0
   -0.1230   -0.0164   -2.3915 O   0  0  0  0  0  2           0  0  0
   -7.0812    0.5207   -2.3627 O   0  0  0  0  0  2           0  0  0
   -7.2199    0.3929   -0.1039 O   0  0  0  0  0  2           0  0  0
   -2.9751    0.0586   -2.3586 N   0  0  2  0  0  3           0  0  0
    1.3831    0.0000   -0.0000 N   0  0  2  0  0  3           0  0  0
    3.2563   -0.5374    2.1277 N   0  0  2  0  0  3           0  0  0
   -0.7282    0.0000    1.2074 C   0  0  0  0  0  4           0  0  0
   -4.3376    0.0592    0.1459 C   0  0  0  0  0  4           0  0  0
   -0.7868   -0.0103   -1.1838 C   0  0  0  0  0  4           0  0  0
   -2.2050    0.0192   -1.1681 C   0  0  0  0  0  4           0  0  0
   -4.3475    0.2133   -2.2606 C   0  0  0  0  0  4           0  0  0
   -0.0000    0.0000    0.0000 C   0  0  0  0  0  4           0  0  0
   -2.8547    0.0223    0.0757 C   0  0  0  0  0  4           0  0  0
   -5.0806    0.2215   -1.1369 C   0  0  0  0  0  4           0  0  0
   -2.1214    0.0056    1.2574 C   0  0  0  0  0  4           0  0  0
   -6.5370    0.3927   -1.2735 C   0  0  0  0  0  4           0  0  0
   -0.8895   -0.6179   -3.4298 C   0  0  0  0  0  4           0  0  0
   -2.2057    0.1317   -3.6139 C   0  0  1  0  0  4           0  0  0
    2.0678    1.1180    0.6455 C   0  0  0  0  0  4           0  0  0
    2.0682   -1.2900    0.0381 C   0  0  0  0  0  4           0  0  0
    2.5123    0.7298    2.0608 C   0  0  0  0  0  4           0  0  0
    2.5104   -1.6204    1.4684 C   0  0  0  0  0  4           0  0  0
    4.6161   -0.4078    1.6088 C   0  0  0  0  0  4           0  0  0
   -2.9427   -0.4748   -4.8107 C   0  0  0  0  0  4           0  0  0
  1  9  1  0     0  0
  2 10  2  0     0  0
  3 11  1  0     0  0
  3 19  1  0     0  0
  4 18  2  0     0  0
  5 18  1  0     0  0
  6 12  1  0     0  0
  6 13  1  0     0  0
  6 20  1  0     0  0
  7 14  1  0     0  0
  7 21  1  0     0  0
  7 22  1  0     0  0
  8 23  1  0     0  0
  8 24  1  0     0  0
  8 25  1  0     0  0
  9 14  2  0     0  0
  9 17  1  0     0  0
 10 15  1  0     0  0
 10 16  1  0     0  0
 11 12  2  0     0  0
 11 14  1  0     0  0
 12 15  1  0     0  0
 13 16  2  0     0  0
 15 17  2  0     0  0
 16 18  1  0     0  0
 19 20  1  0     0  0
 20 26  1  0     0  0
 21 23  1  0     0  0
 22 24  1  0     0  0
M  END
> <standard_type>
pIC50

> <# Confs.>
25

> <canonical_smiles>
FC1=C(N2CCN(C)CC2)C3=C4C(C(C(C(O)=O)=CN4C(C)CO3)=O)=C1

> <standard_relation>
=

> <Publication_ID>
nan

> <predicted_activity_value>
nan

> <actual_activity_value>
-3.1522883443830563

> <Compound>
Ofloxacin

> <standard_units>
uM

> hash
9794261068918498007

$$$$
36
XXILIB    08252103503D 0   0.00000     0.00000

 26 29  0     1  0            999 V2000
   -0.0921   -0.0053    2.3904 F   0  0  0  0  0  1           0  0  0
   -4.9227    0.0054    1.2161 O   0  0  0  0  0  2           0  0  0
   -0.1252    0.0234   -2.3950 O   0  0  0  0  0  2           0  0  0
   -7.2328    0.9412   -1.2435 O   0  0  0  0  0  2           0  0  0
   -7.1148   -1.3216   -1.1862 O   0  0  0  0  0  2           0  0  0
   -2.9702   -0.0619   -2.3440 N   0  0  2  0  0  3           0  0  0
    1.3849    0.0000    0.0000 N   0  0  2  0  0  3           0  0  0
    4.2321    0.1453   -0.1622 N   0  0  2  0  0  3           0  0  0
   -0.7296    0.0000    1.2082 C   0  0  0  0  0  4           0  0  0
   -4.3416   -0.0192    0.1375 C   0  0  0  0  0  4           0  0  0
   -0.7856    0.0108   -1.1830 C   0  0  0  0  0  4           0  0  0
   -2.2035   -0.0182   -1.1602 C   0  0  0  0  0  4           0  0  0
   -4.3499   -0.0838   -2.2733 C   0  0  0  0  0  4           0  0  0
    0.0000    0.0000    0.0000 C   0  0  0  0  0  4           0  0  0
   -2.8569   -0.0090    0.0794 C   0  0  0  0  0  4           0  0  0
   -5.0930   -0.0629   -1.1560 C   0  0  0  0  0  4           0  0  0
   -2.1240    0.0020    1.2601 C   0  0  0  0  0  4           0  0  0
   -6.5650   -0.0840   -1.1980 C   0  0  0  0  0  4           0  0  0
   -0.9057    0.5794   -3.4522 C   0  0  0  0  0  4           0  0  0
   -2.2284   -0.1605   -3.6023 C   0  0  1  0  0  4           0  0  0
    2.0993    1.1098    0.6407 C   0  0  0  0  0  4           0  0  0
    2.0987   -0.7140   -1.0639 C   0  0  0  0  0  4           0  0  0
    3.5321    0.7082    0.9984 C   0  0  0  0  0  4           0  0  0
    3.5267   -1.0523   -0.6320 C   0  0  0  0  0  4           0  0  0
    5.6167   -0.1765    0.1819 C   0  0  0  0  0  4           0  0  0
   -2.0325   -1.6299   -3.9844 C   0  0  0  0  0  4           0  0  0
  1  9  1  0     0  0
  2 10  2  0     0  0
  3 11  1  0     0  0
  3 19  1  0     0  0
  4 18  2  0     0  0
  5 18  1  0     0  0
  6 12  1  0     0  0
  6 13  1  0     0  0
  6 20  1  0     0  0
  7 14  1  0     0  0
  7 21  1  0     0  0
  7 22  1  0     0  0
  8 23  1  0     0  0
  8 24  1  0     0  0
  8 25  1  0     0  0
  9 14  2  0     0  0
  9 17  1  0     0  0
 10 15  1  0     0  0
 10 16  1  0     0  0
 11 12  2  0     0  0
 11 14  1  0     0  0
 12 15  1  0     0  0
 13 16  2  0     0  0
 15 17  2  0     0  0
 16 18  1  0     0  0
 19 20  1  0     0  0
 20 26  1  0     0  0
 21 23  1  0     0  0
 22 24  1  0     0  0
M  END
> <standard_type>
pIC50

> <# Confs.>
25

> <canonical_smiles>
FC1=C(N2CCN(C)CC2)C3=C4C(C(C(C(O)=O)=CN4C(C)CO3)=O)=C1

> <standard_relation>
=

> <Publication_ID>
nan

> <predicted_activity_value>
nan

> <actual_activity_value>
-3.1522883443830563

> <Compound>
Ofloxacin

> <standard_units>
uM

> hash
9794261068918498007

$$$$
36
XXILIB    08252103503D 0   0.00000     0.00000

 26 29  0     1  0            999 V2000
   -0.0921   -0.0053    2.3904 F   0  0  0  0  0  1           0  0  0
   -4.9227    0.0054    1.2161 O   0  0  0  0  0  2           0  0  0
   -0.1252    0.0234   -2.3950 O   0  0  0  0  0  2           0  0  0
   -7.2046   -1.1280   -1.1899 O   0  0  0  0  0  2           0  0  0
   -7.1484    1.1374   -1.2422 O   0  0  0  0  0  2           0  0  0
   -2.9702   -0.0619   -2.3440 N   0  0  2  0  0  3           0  0  0
    1.3849    0.0000    0.0000 N   0  0  2  0  0  3           0  0  0
    4.2321    0.1453   -0.1622 N   0  0  2  0  0  3           0  0  0
   -0.7296    0.0000    1.2082 C   0  0  0  0  0  4           0  0  0
   -4.3416   -0.0192    0.1375 C   0  0  0  0  0  4           0  0  0
   -0.7856    0.0108   -1.1830 C   0  0  0  0  0  4           0  0  0
   -2.2035   -0.0182   -1.1602 C   0  0  0  0  0  4           0  0  0
   -4.3499   -0.0838   -2.2733 C   0  0  0  0  0  4           0  0  0
    0.0000    0.0000    0.0000 C   0  0  0  0  0  4           0  0  0
   -2.8569   -0.0090    0.0794 C   0  0  0  0  0  4           0  0  0
   -5.0930   -0.0629   -1.1560 C   0  0  0  0  0  4           0  0  0
   -2.1240    0.0020    1.2601 C   0  0  0  0  0  4           0  0  0
   -6.5650   -0.0840   -1.1980 C   0  0  0  0  0  4           0  0  0
   -0.9057    0.5794   -3.4522 C   0  0  0  0  0  4           0  0  0
   -2.2284   -0.1605   -3.6023 C   0  0  1  0  0  4           0  0  0
    2.0993    1.1098    0.6407 C   0  0  0  0  0  4           0  0  0
    2.0987   -0.7140   -1.0639 C   0  0  0  0  0  4           0  0  0
    3.5321    0.7082    0.9984 C   0  0  0  0  0  4           0  0  0
    3.5267   -1.0523   -0.6320 C   0  0  0  0  0  4           0  0  0
    5.6167   -0.1765    0.1819 C   0  0  0  0  0  4           0  0  0
   -2.0325   -1.6299   -3.9844 C   0  0  0  0  0  4           0  0  0
  1  9  1  0     0  0
  2 10  2  0     0  0
  3 11  1  0     0  0
  3 19  1  0     0  0
  4 18  2  0     0  0
  5 18  1  0     0  0
  6 12  1  0     0  0
  6 13  1  0     0  0
  6 20  1  0     0  0
  7 14  1  0     0  0
  7 21  1  0     0  0
  7 22  1  0     0  0
  8 23  1  0     0  0
  8 24  1  0     0  0
  8 25  1  0     0  0
  9 14  2  0     0  0
  9 17  1  0     0  0
 10 15  1  0     0  0
 10 16  1  0     0  0
 11 12  2  0     0  0
 11 14  1  0     0  0
 12 15  1  0     0  0
 13 16  2  0     0  0
 15 17  2  0     0  0
 16 18  1  0     0  0
 19 20  1  0     0  0
 20 26  1  0     0  0
 21 23  1  0     0  0
 22 24  1  0     0  0
M  END
> <standard_type>
pIC50

> <# Confs.>
25

> <canonical_smiles>
FC1=C(N2CCN(C)CC2)C3=C4C(C(C(C(O)=O)=CN4C(C)CO3)=O)=C1

> <standard_relation>
=

> <Publication_ID>
nan

> <predicted_activity_value>
nan

> <actual_activity_value>
-3.1522883443830563

> <Compound>
Ofloxacin

> <standard_units>
uM

> hash
9794261068918498007

$$$$
39
XXILIB    08252103503D 0   0.00000     0.00000

 20 22  0     1  0            999 V2000
    1.7218   -2.4249    0.0020 N   0  0  0  0  0  3           0  0  0
    2.1648   -1.2036    0.6949 C   0  0  2  0  0  4           0  0  0
    2.2659   -3.6264    0.6376 C   0  0  0  0  0  4           0  0  0
   -0.0000    0.0000    0.0000 C   0  0  2  0  0  4           0  0  0
   -0.5623    0.0000    1.4354 C   0  0  2  0  0  4           0  0  0
   -0.5654   -1.0707   -0.9672 C   0  0  2  0  0  4           0  0  0
    1.5280    0.0000    0.0000 C   0  0  0  0  0  4           0  0  0
    3.7006   -1.1100    0.7032 C   0  0  0  0  0  4           0  0  0
    3.7922   -3.6201    0.6519 C   0  0  0  0  0  4           0  0  0
    0.0853    1.1106    2.2826 C   0  0  0  0  0  4           0  0  0
   -0.4216   -1.3613    2.1423 C   0  0  0  0  0  4           0  0  0
    0.0820   -0.9550   -2.3593 C   0  0  0  0  0  4           0  0  0
   -2.1006   -1.0299   -1.0874 C   0  0  0  0  0  4           0  0  0
    4.3303   -2.3584    1.3171 C   0  0  0  0  0  4           0  0  0
   -0.4845    1.1475    3.6988 C   0  0  0  0  0  4           0  0  0
   -0.9870   -1.3208    3.5617 C   0  0  0  0  0  4           0  0  0
   -0.4387   -2.0246   -3.3167 C   0  0  0  0  0  4           0  0  0
   -2.6194   -2.0971   -2.0507 C   0  0  0  0  0  4           0  0  0
   -0.3556   -0.2059    4.3890 C   0  0  0  0  0  4           0  0  0
   -1.9594   -1.9892   -3.4213 C   0  0  0  0  0  4           0  0  0
  1  2  1  0     0  0
  1  3  1  0     0  0
  2  7  1  0     0  0
  2  8  1  0     0  0
  3  9  1  0     0  0
  4  5  1  0     0  0
  4  6  1  0     0  0
  4  7  1  0     0  0
  5 10  1  0     0  0
  5 11  1  0     0  0
  6 12  1  0     0  0
  6 13  1  0     0  0
  8 14  1  0     0  0
  9 14  1  0     0  0
 10 15  1  0     0  0
 11 16  1  0     0  0
 12 17  1  0     0  0
 13 18  1  0     0  0
 15 19  1  0     0  0
 16 19  1  0     0  0
 17 20  1  0     0  0
 18 20  1  0     0  0
M  END
> <standard_type>
pIC50

> <# Confs.>
4

> <canonical_smiles>
C1(C(C2CCCCC2)CC3CCCCN3)CCCCC1

> <standard_relation>
=

> <Publication_ID>
nan

> <predicted_activity_value>
nan

> <actual_activity_value>
-0.8920946026904804

> <Compound>
Perhexiline

> <standard_units>
uM

> hash
10681597863988710681

$$$$
39
XXILIB    08252103503D 0   0.00000     0.00000

 20 22  0     1  0            999 V2000
    1.7218   -2.4249    0.0020 N   0  0  0  0  0  3           0  0  0
    2.1648   -1.2036    0.6949 C   0  0  2  0  0  4           0  0  0
    2.2659   -3.6264    0.6376 C   0  0  0  0  0  4           0  0  0
   -0.0000    0.0000    0.0000 C   0  0  2  0  0  4           0  0  0
   -0.5623    0.0000    1.4354 C   0  0  2  0  0  4           0  0  0
   -0.5654   -1.0707   -0.9672 C   0  0  2  0  0  4           0  0  0
    1.5280    0.0000    0.0000 C   0  0  0  0  0  4           0  0  0
    3.7006   -1.1100    0.7032 C   0  0  0  0  0  4           0  0  0
    3.7922   -3.6201    0.6519 C   0  0  0  0  0  4           0  0  0
    0.0853    1.1106    2.2826 C   0  0  0  0  0  4           0  0  0
   -0.4216   -1.3613    2.1423 C   0  0  0  0  0  4           0  0  0
    0.0226   -1.0366   -2.3914 C   0  0  0  0  0  4           0  0  0
   -2.1052   -1.0851   -1.0038 C   0  0  0  0  0  4           0  0  0
    4.3303   -2.3584    1.3171 C   0  0  0  0  0  4           0  0  0
   -0.4845    1.1475    3.6988 C   0  0  0  0  0  4           0  0  0
   -0.9870   -1.3208    3.5617 C   0  0  0  0  0  4           0  0  0
   -0.6154   -0.0035   -3.3170 C   0  0  0  0  0  4           0  0  0
   -2.7252   -0.0452   -1.9328 C   0  0  0  0  0  4           0  0  0
   -0.3556   -0.2059    4.3890 C   0  0  0  0  0  4           0  0  0
   -2.1346   -0.1173   -3.3348 C   0  0  0  0  0  4           0  0  0
  1  2  1  0     0  0
  1  3  1  0     0  0
  2  7  1  0     0  0
  2  8  1  0     0  0
  3  9  1  0     0  0
  4  5  1  0     0  0
  4  6  1  0     0  0
  4  7  1  0     0  0
  5 10  1  0     0  0
  5 11  1  0     0  0
  6 12  1  0     0  0
  6 13  1  0     0  0
  8 14  1  0     0  0
  9 14  1  0     0  0
 10 15  1  0     0  0
 11 16  1  0     0  0
 12 17  1  0     0  0
 13 18  1  0     0  0
 15 19  1  0     0  0
 16 19  1  0     0  0
 17 20  1  0     0  0
 18 20  1  0     0  0
M  END
> <standard_type>
pIC50

> <# Confs.>
4

> <canonical_smiles>
C1(C(C2CCCCC2)CC3CCCCN3)CCCCC1

> <standard_relation>
=

> <Publication_ID>
nan

> <predicted_activity_value>
nan

> <actual_activity_value>
-0.8920946026904804

> <Compound>
Perhexiline

> <standard_units>
uM

> hash
10681597863988710681

$$$$
39
XXILIB    08252103503D 0   0.00000     0.00000

 20 22  0     1  0            999 V2000
    1.7218   -2.4249    0.0020 N   0  0  0  0  0  3           0  0  0
    2.1648   -1.2036    0.6949 C   0  0  2  0  0  4           0  0  0
    2.2659   -3.6264    0.6376 C   0  0  0  0  0  4           0  0  0
   -0.0000    0.0000    0.0000 C   0  0  2  0  0  4           0  0  0
   -0.5623    0.0000    1.4354 C   0  0  2  0  0  4           0  0  0
   -0.5654   -1.0707   -0.9672 C   0  0  2  0  0  4           0  0  0
    1.5280    0.0000    0.0000 C   0  0  0  0  0  4           0  0  0
    3.7006   -1.1100    0.7032 C   0  0  0  0  0  4           0  0  0
    3.7922   -3.6201    0.6519 C   0  0  0  0  0  4           0  0  0
    0.0853    1.1106    2.2826 C   0  0  0  0  0  4           0  0  0
   -0.4216   -1.3613    2.1423 C   0  0  0  0  0  4           0  0  0
   -2.0918   -0.9136   -1.1419 C   0  0  0  0  0  4           0  0  0
    0.1299   -1.0951   -2.3373 C   0  0  0  0  0  4           0  0  0
    4.3303   -2.3584    1.3171 C   0  0  0  0  0  4           0  0  0
   -0.4845    1.1475    3.6988 C   0  0  0  0  0  4           0  0  0
   -0.9870   -1.3208    3.5617 C   0  0  0  0  0  4           0  0  0
   -2.6354   -1.5515   -2.4233 C   0  0  0  0  0  4           0  0  0
   -0.3449   -2.2742   -3.1946 C   0  0  0  0  0  4           0  0  0
   -0.3556   -0.2059    4.3890 C   0  0  0  0  0  4           0  0  0
   -1.7763   -2.7169   -2.8901 C   0  0  0  0  0  4           0  0  0
  1  2  1  0     0  0
  1  3  1  0     0  0
  2  7  1  0     0  0
  2  8  1  0     0  0
  3  9  1  0     0  0
  4  5  1  0     0  0
  4  6  1  0     0  0
  4  7  1  0     0  0
  5 10  1  0     0  0
  5 11  1  0     0  0
  6 12  1  0     0  0
  6 13  1  0     0  0
  8 14  1  0     0  0
  9 14  1  0     0  0
 10 15  1  0     0  0
 11 16  1  0     0  0
 12 17  1  0     0  0
 13 18  1  0     0  0
 15 19  1  0     0  0
 16 19  1  0     0  0
 17 20  1  0     0  0
 18 20  1  0     0  0
M  END
> <standard_type>
pIC50

> <# Confs.>
4

> <canonical_smiles>
C1(C(C2CCCCC2)CC3CCCCN3)CCCCC1

> <standard_relation>
=

> <Publication_ID>
nan

> <predicted_activity_value>
nan

> <actual_activity_value>
-0.8920946026904804

> <Compound>
Perhexiline

> <standard_units>
uM

> hash
10681597863988710681

$$$$
39
XXILIB    08252103503D 0   0.00000     0.00000

 20 22  0     1  0            999 V2000
    3.6221   -1.0868    0.6275 N   0  0  0  0  0  3           0  0  0
    2.1648   -1.2036    0.6949 C   0  0  2  0  0  4           0  0  0
    4.3103   -2.1142    1.4120 C   0  0  0  0  0  4           0  0  0
   -0.0000    0.0000    0.0000 C   0  0  2  0  0  4           0  0  0
   -0.5623    0.0000    1.4354 C   0  0  2  0  0  4           0  0  0
   -0.5654   -1.0707   -0.9672 C   0  0  2  0  0  4           0  0  0
    1.5280   -0.0000   -0.0000 C   0  0  0  0  0  4           0  0  0
    1.7271   -2.5326    0.0500 C   0  0  0  0  0  4           0  0  0
    3.4971   -3.3931    1.6346 C   0  0  0  0  0  4           0  0  0
    0.0853    1.1106    2.2826 C   0  0  0  0  0  4           0  0  0
   -0.4216   -1.3613    2.1423 C   0  0  0  0  0  4           0  0  0
    0.0820   -0.9550   -2.3593 C   0  0  0  0  0  4           0  0  0
   -2.1006   -1.0299   -1.0874 C   0  0  0  0  0  4           0  0  0
    2.6290   -3.7137    0.4263 C   0  0  0  0  0  4           0  0  0
   -0.4845    1.1475    3.6988 C   0  0  0  0  0  4           0  0  0
   -0.9870   -1.3208    3.5617 C   0  0  0  0  0  4           0  0  0
   -0.4387   -2.0246   -3.3167 C   0  0  0  0  0  4           0  0  0
   -2.6194   -2.0971   -2.0507 C   0  0  0  0  0  4           0  0  0
   -0.3556   -0.2059    4.3890 C   0  0  0  0  0  4           0  0  0
   -1.9594   -1.9892   -3.4213 C   0  0  0  0  0  4           0  0  0
  1  2  1  0     0  0
  1  3  1  0     0  0
  2  7  1  0     0  0
  2  8  1  0     0  0
  3  9  1  0     0  0
  4  5  1  0     0  0
  4  6  1  0     0  0
  4  7  1  0     0  0
  5 10  1  0     0  0
  5 11  1  0     0  0
  6 12  1  0     0  0
  6 13  1  0     0  0
  8 14  1  0     0  0
  9 14  1  0     0  0
 10 15  1  0     0  0
 11 16  1  0     0  0
 12 17  1  0     0  0
 13 18  1  0     0  0
 15 19  1  0     0  0
 16 19  1  0     0  0
 17 20  1  0     0  0
 18 20  1  0     0  0
M  END
> <standard_type>
pIC50

> <# Confs.>
4

> <canonical_smiles>
C1(C(C2CCCCC2)CC3CCCCN3)CCCCC1

> <standard_relation>
=

> <Publication_ID>
nan

> <predicted_activity_value>
nan

> <actual_activity_value>
-0.8920946026904804

> <Compound>
Perhexiline

> <standard_units>
uM

> hash
10681597863988710681

$$$$
31
XXILIB    08252103503D 0   0.00000     0.00000

 36 39  0     1  0            999 V2000
   -5.3542   -0.5600   -3.7081 F   0  0  0  0  0  1           0  0  0
    0.4914    1.9540    2.0719 O   0  0  0  0  0  2           0  0  0
   -0.5023    0.0000    1.3539 O   0  0  0  0  0  2           0  0  0
   -0.6002    1.6516    4.5172 O   0  0  0  0  0  2           0  0  0
    5.0271    0.7394    1.5796 N   0  0  0  0  0  3           0  0  0
    6.7061   -0.5937    2.1571 N   0  0  0  0  0  3           0  0  0
    3.5888   -0.0000   -1.5320 N   0  0  1  0  0  3           0  0  0
   -4.2155   -0.7201   -3.0196 C   0  0  0  0  0  4           0  0  0
    6.0932   -0.0114    1.1456 C   0  0  0  0  0  4           0  0  0
    4.9572    0.6340    2.9444 C   0  0  0  0  0  4           0  0  0
    6.0151   -0.2040    3.2806 C   0  0  0  0  0  4           0  0  0
   -1.8438   -1.0575   -1.5494 C   0  0  0  0  0  4           0  0  0
   -2.5240    0.1761   -1.5399 C   0  0  0  0  0  4           0  0  0
   -3.7226    0.3291   -2.2554 C   0  0  0  0  0  4           0  0  0
   -3.5333   -1.9236   -3.0932 C   0  0  0  0  0  4           0  0  0
    4.0844    1.1826    3.8849 C   0  0  0  0  0  4           0  0  0
    6.2312   -0.5270    4.6310 C   0  0  0  0  0  4           0  0  0
   -2.3513   -2.0850   -2.3695 C   0  0  0  0  0  4           0  0  0
    4.3132    0.8503    5.2244 C   0  0  0  0  0  4           0  0  0
    5.3667    0.0105    5.5930 C   0  0  0  0  0  4           0  0  0
   -0.2131    0.9723    2.2645 C   0  0  0  0  0  4           0  0  0
    0.0000    0.0000    0.0000 C   0  0  2  0  0  4           0  0  0
   -0.8995    0.6472    3.5642 C   0  0  0  0  0  4           0  0  0
   -1.2268    1.3898    5.7653 C   0  0  0  0  0  4           0  0  0
    2.1287    0.0000   -1.4120 C   0  0  0  0  0  4           0  0  0
    4.2100   -1.1684   -0.9062 C   0  0  0  0  0  4           0  0  0
    4.0272    0.1734   -2.9153 C   0  0  0  0  0  4           0  0  0
   -0.5613   -1.2917   -0.7322 C   0  0  1  0  0  4           0  0  0
    6.4547   -0.1138   -0.2919 C   0  0  0  0  0  4           0  0  0
   -1.9878    1.3531   -0.7794 C   0  0  0  0  0  4           0  0  0
   -0.7008   -2.4821    0.2377 C   0  0  2  0  0  4           0  0  0
    1.5266    0.0000    0.0000 C   0  0  0  0  0  4           0  0  0
   -0.4690    1.2837   -0.7191 C   0  0  0  0  0  4           0  0  0
    5.7395   -1.2834   -0.9653 C   0  0  0  0  0  4           0  0  0
   -1.6517   -2.2084    1.4092 C   0  0  0  0  0  4           0  0  0
    0.6699   -2.9023    0.7790 C   0  0  0  0  0  4           0  0  0
  1  8  1  0     0  0
  2 21  2  0     0  0
  3 21  1  0     0  0
  3 22  1  0     0  0
  4 23  1  0     0  0
  4 24  1  0     0  0
  5  9  1  0     0  0
  5 10  1  0     0  0
  6  9  2  0     0  0
  6 11  1  0     0  0
  7 25  1  0     0  0
  7 26  1  0     0  0
  7 27  1  0     0  0
  8 14  2  0     0  0
  8 15  1  0     0  0
  9 29  1  0     0  0
 10 11  1  0     0  0
 10 16  2  0     0  0
 11 17  2  0     0  0
 12 13  2  0     0  0
 12 18  1  0     0  0
 12 28  1  0     0  0
 13 14  1  0     0  0
 13 30  1  0     0  0
 15 18  2  0     0  0
 16 19  1  0     0  0
 17 20  1  0     0  0
 19 20  2  0     0  0
 21 23  1  0     0  0
 22 28  1  0     0  0
 22 32  1  0     0  0
 22 33  1  0     0  0
 25 32  1  0     0  0
 26 34  1  0     0  0
 28 31  1  0     0  0
 29 34  1  0     0  0
 30 33  1  0     0  0
 31 35  1  0     0  0
 31 36  1  0     0  0
M  END
> <standard_type>
pIC50

> <# Confs.>
25

> <canonical_smiles>
O=C(O[C@@]1(CCN(CCCC2=NC3=CC=CC=C3N2)C)[C@@H](C(C)C)C4=C(C=C(F)C=C4)CC1)COC

> <standard_relation>
=

> <Publication_ID>
nan

> <predicted_activity_value>
nan

> <actual_activity_value>
-0.1553360374650618

> <Compound>
Mibefradil

> <standard_units>
uM

> hash
6864537718774107621

$$$$
31
XXILIB    08252103503D 0   0.00000     0.00000

 36 39  0     1  0            999 V2000
   -5.3542   -0.5600   -3.7081 F   0  0  0  0  0  1           0  0  0
    0.4914    1.9540    2.0719 O   0  0  0  0  0  2           0  0  0
   -0.5023    0.0000    1.3539 O   0  0  0  0  0  2           0  0  0
   -2.2995    0.5930    3.3550 O   0  0  0  0  0  2           0  0  0
    5.0271    0.7394    1.5796 N   0  0  0  0  0  3           0  0  0
    6.7061   -0.5937    2.1571 N   0  0  0  0  0  3           0  0  0
    3.5888   -0.0000   -1.5320 N   0  0  1  0  0  3           0  0  0
   -4.2155   -0.7201   -3.0196 C   0  0  0  0  0  4           0  0  0
    6.0932   -0.0114    1.1456 C   0  0  0  0  0  4           0  0  0
    4.9572    0.6340    2.9444 C   0  0  0  0  0  4           0  0  0
    6.0151   -0.2040    3.2806 C   0  0  0  0  0  4           0  0  0
   -1.8438   -1.0575   -1.5494 C   0  0  0  0  0  4           0  0  0
   -2.5240    0.1761   -1.5399 C   0  0  0  0  0  4           0  0  0
   -3.7226    0.3291   -2.2554 C   0  0  0  0  0  4           0  0  0
   -3.5333   -1.9236   -3.0932 C   0  0  0  0  0  4           0  0  0
    4.0844    1.1826    3.8849 C   0  0  0  0  0  4           0  0  0
    6.2312   -0.5270    4.6310 C   0  0  0  0  0  4           0  0  0
   -2.3513   -2.0850   -2.3695 C   0  0  0  0  0  4           0  0  0
    4.3132    0.8503    5.2244 C   0  0  0  0  0  4           0  0  0
    5.3667    0.0105    5.5930 C   0  0  0  0  0  4           0  0  0
   -0.2131    0.9723    2.2645 C   0  0  0  0  0  4           0  0  0
    0.0000    0.0000    0.0000 C   0  0  2  0  0  4           0  0  0
   -0.8995    0.6472    3.5642 C   0  0  0  0  0  4           0  0  0
   -2.9950    0.2883    4.5560 C   0  0  0  0  0  4           0  0  0
    2.1287    0.0000   -1.4120 C   0  0  0  0  0  4           0  0  0
    4.2100   -1.1684   -0.9062 C   0  0  0  0  0  4           0  0  0
    4.0272    0.1734   -2.9153 C   0  0  0  0  0  4           0  0  0
   -0.5613   -1.2917   -0.7322 C   0  0  1  0  0  4           0  0  0
    6.4547   -0.1138   -0.2919 C   0  0  0  0  0  4           0  0  0
   -1.9878    1.3531   -0.7794 C   0  0  0  0  0  4           0  0  0
   -0.7008   -2.4821    0.2377 C   0  0  2  0  0  4           0  0  0
    1.5266    0.0000    0.0000 C   0  0  0  0  0  4           0  0  0
   -0.4690    1.2837   -0.7191 C   0  0  0  0  0  4           0  0  0
    5.7395   -1.2834   -0.9653 C   0  0  0  0  0  4           0  0  0
   -1.6517   -2.2084    1.4092 C   0  0  0  0  0  4           0  0  0
    0.6699   -2.9023    0.7790 C   0  0  0  0  0  4           0  0  0
  1  8  1  0     0  0
  2 21  2  0     0  0
  3 21  1  0     0  0
  3 22  1  0     0  0
  4 23  1  0     0  0
  4 24  1  0     0  0
  5  9  1  0     0  0
  5 10  1  0     0  0
  6  9  2  0     0  0
  6 11  1  0     0  0
  7 25  1  0     0  0
  7 26  1  0     0  0
  7 27  1  0     0  0
  8 14  2  0     0  0
  8 15  1  0     0  0
  9 29  1  0     0  0
 10 11  1  0     0  0
 10 16  2  0     0  0
 11 17  2  0     0  0
 12 13  2  0     0  0
 12 18  1  0     0  0
 12 28  1  0     0  0
 13 14  1  0     0  0
 13 30  1  0     0  0
 15 18  2  0     0  0
 16 19  1  0     0  0
 17 20  1  0     0  0
 19 20  2  0     0  0
 21 23  1  0     0  0
 22 28  1  0     0  0
 22 32  1  0     0  0
 22 33  1  0     0  0
 25 32  1  0     0  0
 26 34  1  0     0  0
 28 31  1  0     0  0
 29 34  1  0     0  0
 30 33  1  0     0  0
 31 35  1  0     0  0
 31 36  1  0     0  0
M  END
> <standard_type>
pIC50

> <# Confs.>
25

> <canonical_smiles>
O=C(O[C@@]1(CCN(CCCC2=NC3=CC=CC=C3N2)C)[C@@H](C(C)C)C4=C(C=C(F)C=C4)CC1)COC

> <standard_relation>
=

> <Publication_ID>
nan

> <predicted_activity_value>
nan

> <actual_activity_value>
-0.1553360374650618

> <Compound>
Mibefradil

> <standard_units>
uM

> hash
6864537718774107621

$$$$
31
XXILIB    08252103503D 0   0.00000     0.00000

 36 39  0     1  0            999 V2000
   -5.3542   -0.5600   -3.7081 F   0  0  0  0  0  1           0  0  0
    0.4914    1.9540    2.0719 O   0  0  0  0  0  2           0  0  0
   -0.5023    0.0000    1.3539 O   0  0  0  0  0  2           0  0  0
   -0.6002    1.6516    4.5172 O   0  0  0  0  0  2           0  0  0
    6.2701   -2.1939   -2.0751 N   0  0  0  0  0  3           0  0  0
    6.4257   -2.9625   -4.1523 N   0  0  0  0  0  3           0  0  0
    3.5888   -0.0000   -1.5320 N   0  0  1  0  0  3           0  0  0
   -4.2155   -0.7201   -3.0196 C   0  0  0  0  0  4           0  0  0
    5.5917   -2.5727   -3.2087 C   0  0  0  0  0  4           0  0  0
    7.6120   -2.3466   -2.3088 C   0  0  0  0  0  4           0  0  0
    7.6831   -2.8284   -3.6115 C   0  0  0  0  0  4           0  0  0
   -1.8438   -1.0575   -1.5494 C   0  0  0  0  0  4           0  0  0
   -2.5240    0.1761   -1.5399 C   0  0  0  0  0  4           0  0  0
   -3.7226    0.3291   -2.2554 C   0  0  0  0  0  4           0  0  0
   -3.5333   -1.9236   -3.0932 C   0  0  0  0  0  4           0  0  0
    8.7357   -2.1127   -1.5150 C   0  0  0  0  0  4           0  0  0
    8.9417   -3.1004   -4.1740 C   0  0  0  0  0  4           0  0  0
   -2.3513   -2.0850   -2.3695 C   0  0  0  0  0  4           0  0  0
    9.9806   -2.3894   -2.0900 C   0  0  0  0  0  4           0  0  0
   10.0840   -2.8750   -3.3956 C   0  0  0  0  0  4           0  0  0
   -0.2131    0.9723    2.2645 C   0  0  0  0  0  4           0  0  0
    0.0000    0.0000    0.0000 C   0  0  2  0  0  4           0  0  0
   -0.8995    0.6472    3.5642 C   0  0  0  0  0  4           0  0  0
    0.5711    1.3363    5.2571 C   0  0  0  0  0  4           0  0  0
    2.1287   -0.0000   -1.4120 C   0  0  0  0  0  4           0  0  0
    4.0442   -0.0000   -2.9231 C   0  0  0  0  0  4           0  0  0
    4.2045    1.0762   -0.7582 C   0  0  0  0  0  4           0  0  0
   -0.5613   -1.2917   -0.7322 C   0  0  1  0  0  4           0  0  0
    4.1092   -2.5270   -3.2948 C   0  0  0  0  0  4           0  0  0
   -1.9878    1.3531   -0.7794 C   0  0  0  0  0  4           0  0  0
   -0.7008   -2.4821    0.2377 C   0  0  2  0  0  4           0  0  0
    1.5266   -0.0000   -0.0000 C   0  0  0  0  0  4           0  0  0
   -0.4690    1.2837   -0.7191 C   0  0  0  0  0  4           0  0  0
    3.6216   -1.1760   -3.8145 C   0  0  0  0  0  4           0  0  0
   -1.6517   -2.2084    1.4092 C   0  0  0  0  0  4           0  0  0
    0.6699   -2.9023    0.7790 C   0  0  0  0  0  4           0  0  0
  1  8  1  0     0  0
  2 21  2  0     0  0
  3 21  1  0     0  0
  3 22  1  0     0  0
  4 23  1  0     0  0
  4 24  1  0     0  0
  5  9  1  0     0  0
  5 10  1  0     0  0
  6  9  2  0     0  0
  6 11  1  0     0  0
  7 25  1  0     0  0
  7 26  1  0     0  0
  7 27  1  0     0  0
  8 14  2  0     0  0
  8 15  1  0     0  0
  9 29  1  0     0  0
 10 11  1  0     0  0
 10 16  2  0     0  0
 11 17  2  0     0  0
 12 13  2  0     0  0
 12 18  1  0     0  0
 12 28  1  0     0  0
 13 14  1  0     0  0
 13 30  1  0     0  0
 15 18  2  0     0  0
 16 19  1  0     0  0
 17 20  1  0     0  0
 19 20  2  0     0  0
 21 23  1  0     0  0
 22 28  1  0     0  0
 22 32  1  0     0  0
 22 33  1  0     0  0
 25 32  1  0     0  0
 26 34  1  0     0  0
 28 31  1  0     0  0
 29 34  1  0     0  0
 30 33  1  0     0  0
 31 35  1  0     0  0
 31 36  1  0     0  0
M  END
> <standard_type>
pIC50

> <# Confs.>
25

> <canonical_smiles>
O=C(O[C@@]1(CCN(CCCC2=NC3=CC=CC=C3N2)C)[C@@H](C(C)C)C4=C(C=C(F)C=C4)CC1)COC

> <standard_relation>
=

> <Publication_ID>
nan

> <predicted_activity_value>
nan

> <actual_activity_value>
-0.1553360374650618

> <Compound>
Mibefradil

> <standard_units>
uM

> hash
6864537718774107621

$$$$
31
XXILIB    08252103503D 0   0.00000     0.00000

 36 39  0     1  0            999 V2000
   -5.3542   -0.5600   -3.7081 F   0  0  0  0  0  1           0  0  0
    0.4914    1.9540    2.0719 O   0  0  0  0  0  2           0  0  0
   -0.5023    0.0000    1.3539 O   0  0  0  0  0  2           0  0  0
   -0.6002    1.6516    4.5172 O   0  0  0  0  0  2           0  0  0
    6.1540    1.3755   -3.4878 N   0  0  0  0  0  3           0  0  0
    6.5079    3.5416   -3.1526 N   0  0  0  0  0  3           0  0  0
    3.5888    0.0000   -1.5320 N   0  0  1  0  0  3           0  0  0
   -4.2155   -0.7201   -3.0196 C   0  0  0  0  0  4           0  0  0
    5.5943    2.5915   -3.1763 C   0  0  0  0  0  4           0  0  0
    7.5002    1.5583   -3.6695 C   0  0  0  0  0  4           0  0  0
    7.6959    2.9186   -3.4558 C   0  0  0  0  0  4           0  0  0
   -1.8438   -1.0575   -1.5494 C   0  0  0  0  0  4           0  0  0
   -2.5240    0.1761   -1.5399 C   0  0  0  0  0  4           0  0  0
   -3.7226    0.3291   -2.2554 C   0  0  0  0  0  4           0  0  0
   -3.5333   -1.9236   -3.0932 C   0  0  0  0  0  4           0  0  0
    8.5319    0.6766   -3.9941 C   0  0  0  0  0  4           0  0  0
    8.9914    3.4508   -3.5691 C   0  0  0  0  0  4           0  0  0
   -2.3513   -2.0850   -2.3695 C   0  0  0  0  0  4           0  0  0
    9.8151    1.2229   -4.1036 C   0  0  0  0  0  4           0  0  0
   10.0429    2.5852   -3.8958 C   0  0  0  0  0  4           0  0  0
   -0.2131    0.9723    2.2645 C   0  0  0  0  0  4           0  0  0
    0.0000    0.0000    0.0000 C   0  0  2  0  0  4           0  0  0
   -0.8995    0.6472    3.5642 C   0  0  0  0  0  4           0  0  0
    0.5711    1.3363    5.2571 C   0  0  0  0  0  4           0  0  0
    2.1287    0.0000   -1.4120 C   0  0  0  0  0  4           0  0  0
    4.2100    1.1684   -0.9062 C   0  0  0  0  0  4           0  0  0
    4.1799   -1.2496   -1.0576 C   0  0  0  0  0  4           0  0  0
   -0.5613   -1.2917   -0.7322 C   0  0  1  0  0  4           0  0  0
    4.1405    2.7481   -2.9131 C   0  0  0  0  0  4           0  0  0
   -1.9878    1.3531   -0.7794 C   0  0  0  0  0  4           0  0  0
   -0.7008   -2.4821    0.2377 C   0  0  2  0  0  4           0  0  0
    1.5266   -0.0000    0.0000 C   0  0  0  0  0  4           0  0  0
   -0.4690    1.2837   -0.7191 C   0  0  0  0  0  4           0  0  0
    3.8174    2.5557   -1.4327 C   0  0  0  0  0  4           0  0  0
   -1.6517   -2.2084    1.4092 C   0  0  0  0  0  4           0  0  0
    0.6699   -2.9023    0.7790 C   0  0  0  0  0  4           0  0  0
  1  8  1  0     0  0
  2 21  2  0     0  0
  3 21  1  0     0  0
  3 22  1  0     0  0
  4 23  1  0     0  0
  4 24  1  0     0  0
  5  9  1  0     0  0
  5 10  1  0     0  0
  6  9  2  0     0  0
  6 11  1  0     0  0
  7 25  1  0     0  0
  7 26  1  0     0  0
  7 27  1  0     0  0
  8 14  2  0     0  0
  8 15  1  0     0  0
  9 29  1  0     0  0
 10 11  1  0     0  0
 10 16  2  0     0  0
 11 17  2  0     0  0
 12 13  2  0     0  0
 12 18  1  0     0  0
 12 28  1  0     0  0
 13 14  1  0     0  0
 13 30  1  0     0  0
 15 18  2  0     0  0
 16 19  1  0     0  0
 17 20  1  0     0  0
 19 20  2  0     0  0
 21 23  1  0     0  0
 22 28  1  0     0  0
 22 32  1  0     0  0
 22 33  1  0     0  0
 25 32  1  0     0  0
 26 34  1  0     0  0
 28 31  1  0     0  0
 29 34  1  0     0  0
 30 33  1  0     0  0
 31 35  1  0     0  0
 31 36  1  0     0  0
M  END
> <standard_type>
pIC50

> <# Confs.>
25

> <canonical_smiles>
O=C(O[C@@]1(CCN(CCCC2=NC3=CC=CC=C3N2)C)[C@@H](C(C)C)C4=C(C=C(F)C=C4)CC1)COC

> <standard_relation>
=

> <Publication_ID>
nan

> <predicted_activity_value>
nan

> <actual_activity_value>
-0.1553360374650618

> <Compound>
Mibefradil

> <standard_units>
uM

> hash
6864537718774107621

$$$$
31
XXILIB    08252103503D 0   0.00000     0.00000

 36 39  0     1  0            999 V2000
   -5.3542   -0.5600   -3.7081 F   0  0  0  0  0  1           0  0  0
    0.4914    1.9540    2.0719 O   0  0  0  0  0  2           0  0  0
   -0.5023    0.0000    1.3539 O   0  0  0  0  0  2           0  0  0
   -0.6002    1.6516    4.5172 O   0  0  0  0  0  2           0  0  0
    3.1478    4.3813    1.2681 N   0  0  0  0  0  3           0  0  0
    4.8783    3.0574    1.6949 N   0  0  0  0  0  3           0  0  0
    3.5888    0.0000   -1.5320 N   0  0  1  0  0  3           0  0  0
   -4.2155   -0.7201   -3.0196 C   0  0  0  0  0  4           0  0  0
    4.2156    3.6904    0.7473 C   0  0  0  0  0  4           0  0  0
    3.1295    4.1816    2.6240 C   0  0  0  0  0  4           0  0  0
    4.2188    3.3513    2.8655 C   0  0  0  0  0  4           0  0  0
   -1.8438   -1.0575   -1.5494 C   0  0  0  0  0  4           0  0  0
   -2.5240    0.1761   -1.5399 C   0  0  0  0  0  4           0  0  0
   -3.7226    0.3291   -2.2554 C   0  0  0  0  0  4           0  0  0
   -3.5333   -1.9236   -3.0932 C   0  0  0  0  0  4           0  0  0
    2.2779    4.6416    3.6292 C   0  0  0  0  0  4           0  0  0
    4.4910    2.9432    4.1823 C   0  0  0  0  0  4           0  0  0
   -2.3513   -2.0850   -2.3695 C   0  0  0  0  0  4           0  0  0
    2.5626    4.2254    4.9341 C   0  0  0  0  0  4           0  0  0
    3.6487    3.3909    5.2079 C   0  0  0  0  0  4           0  0  0
   -0.2131    0.9723    2.2645 C   0  0  0  0  0  4           0  0  0
    0.0000    0.0000    0.0000 C   0  0  2  0  0  4           0  0  0
   -0.8995    0.6472    3.5642 C   0  0  0  0  0  4           0  0  0
    0.5711    1.3363    5.2571 C   0  0  0  0  0  4           0  0  0
    2.1287    0.0000   -1.4120 C   0  0  0  0  0  4           0  0  0
    4.2100    1.1684   -0.9062 C   0  0  0  0  0  4           0  0  0
    4.1799   -1.2496   -1.0576 C   0  0  0  0  0  4           0  0  0
   -0.5613   -1.2917   -0.7322 C   0  0  1  0  0  4           0  0  0
    4.5276    3.6956   -0.7052 C   0  0  0  0  0  4           0  0  0
   -1.9878    1.3531   -0.7794 C   0  0  0  0  0  4           0  0  0
   -0.7008   -2.4821    0.2377 C   0  0  2  0  0  4           0  0  0
    1.5266   -0.0000    0.0000 C   0  0  0  0  0  4           0  0  0
   -0.4690    1.2837   -0.7191 C   0  0  0  0  0  4           0  0  0
    3.8174    2.5557   -1.4327 C   0  0  0  0  0  4           0  0  0
   -1.6517   -2.2084    1.4092 C   0  0  0  0  0  4           0  0  0
    0.6699   -2.9023    0.7790 C   0  0  0  0  0  4           0  0  0
  1  8  1  0     0  0
  2 21  2  0     0  0
  3 21  1  0     0  0
  3 22  1  0     0  0
  4 23  1  0     0  0
  4 24  1  0     0  0
  5  9  1  0     0  0
  5 10  1  0     0  0
  6  9  2  0     0  0
  6 11  1  0     0  0
  7 25  1  0     0  0
  7 26  1  0     0  0
  7 27  1  0     0  0
  8 14  2  0     0  0
  8 15  1  0     0  0
  9 29  1  0     0  0
 10 11  1  0     0  0
 10 16  2  0     0  0
 11 17  2  0     0  0
 12 13  2  0     0  0
 12 18  1  0     0  0
 12 28  1  0     0  0
 13 14  1  0     0  0
 13 30  1  0     0  0
 15 18  2  0     0  0
 16 19  1  0     0  0
 17 20  1  0     0  0
 19 20  2  0     0  0
 21 23  1  0     0  0
 22 28  1  0     0  0
 22 32  1  0     0  0
 22 33  1  0     0  0
 25 32  1  0     0  0
 26 34  1  0     0  0
 28 31  1  0     0  0
 29 34  1  0     0  0
 30 33  1  0     0  0
 31 35  1  0     0  0
 31 36  1  0     0  0
M  END
> <standard_type>
pIC50

> <# Confs.>
25

> <canonical_smiles>
O=C(O[C@@]1(CCN(CCCC2=NC3=CC=CC=C3N2)C)[C@@H](C(C)C)C4=C(C=C(F)C=C4)CC1)COC

> <standard_relation>
=

> <Publication_ID>
nan

> <predicted_activity_value>
nan

> <actual_activity_value>
-0.1553360374650618

> <Compound>
Mibefradil

> <standard_units>
uM

> hash
6864537718774107621

$$$$
31
XXILIB    08252103503D 0   0.00000     0.00000

 36 39  0     1  0            999 V2000
   -5.3542   -0.5600   -3.7081 F   0  0  0  0  0  1           0  0  0
    0.4914    1.9540    2.0719 O   0  0  0  0  0  2           0  0  0
   -0.5023    0.0000    1.3539 O   0  0  0  0  0  2           0  0  0
   -2.2995    0.5930    3.3550 O   0  0  0  0  0  2           0  0  0
    6.1540    1.3755   -3.4878 N   0  0  0  0  0  3           0  0  0
    6.5079    3.5416   -3.1526 N   0  0  0  0  0  3           0  0  0
    3.5888    0.0000   -1.5320 N   0  0  1  0  0  3           0  0  0
   -4.2155   -0.7201   -3.0196 C   0  0  0  0  0  4           0  0  0
    5.5943    2.5915   -3.1763 C   0  0  0  0  0  4           0  0  0
    7.5002    1.5583   -3.6695 C   0  0  0  0  0  4           0  0  0
    7.6959    2.9186   -3.4558 C   0  0  0  0  0  4           0  0  0
   -1.8438   -1.0575   -1.5494 C   0  0  0  0  0  4           0  0  0
   -2.5240    0.1761   -1.5399 C   0  0  0  0  0  4           0  0  0
   -3.7226    0.3291   -2.2554 C   0  0  0  0  0  4           0  0  0
   -3.5333   -1.9236   -3.0932 C   0  0  0  0  0  4           0  0  0
    8.5319    0.6766   -3.9941 C   0  0  0  0  0  4           0  0  0
    8.9914    3.4508   -3.5691 C   0  0  0  0  0  4           0  0  0
   -2.3513   -2.0850   -2.3695 C   0  0  0  0  0  4           0  0  0
    9.8151    1.2229   -4.1036 C   0  0  0  0  0  4           0  0  0
   10.0429    2.5852   -3.8958 C   0  0  0  0  0  4           0  0  0
   -0.2131    0.9723    2.2645 C   0  0  0  0  0  4           0  0  0
    0.0000    0.0000    0.0000 C   0  0  2  0  0  4           0  0  0
   -0.8995    0.6472    3.5642 C   0  0  0  0  0  4           0  0  0
   -2.9950    0.2883    4.5560 C   0  0  0  0  0  4           0  0  0
    2.1287    0.0000   -1.4120 C   0  0  0  0  0  4           0  0  0
    4.2100    1.1684   -0.9062 C   0  0  0  0  0  4           0  0  0
    4.1799   -1.2496   -1.0576 C   0  0  0  0  0  4           0  0  0
   -0.5613   -1.2917   -0.7322 C   0  0  1  0  0  4           0  0  0
    4.1405    2.7481   -2.9131 C   0  0  0  0  0  4           0  0  0
   -1.9878    1.3531   -0.7794 C   0  0  0  0  0  4           0  0  0
   -0.7008   -2.4821    0.2377 C   0  0  2  0  0  4           0  0  0
    1.5266   -0.0000    0.0000 C   0  0  0  0  0  4           0  0  0
   -0.4690    1.2837   -0.7191 C   0  0  0  0  0  4           0  0  0
    3.8174    2.5557   -1.4327 C   0  0  0  0  0  4           0  0  0
   -1.6517   -2.2084    1.4092 C   0  0  0  0  0  4           0  0  0
    0.6699   -2.9023    0.7790 C   0  0  0  0  0  4           0  0  0
  1  8  1  0     0  0
  2 21  2  0     0  0
  3 21  1  0     0  0
  3 22  1  0     0  0
  4 23  1  0     0  0
  4 24  1  0     0  0
  5  9  1  0     0  0
  5 10  1  0     0  0
  6  9  2  0     0  0
  6 11  1  0     0  0
  7 25  1  0     0  0
  7 26  1  0     0  0
  7 27  1  0     0  0
  8 14  2  0     0  0
  8 15  1  0     0  0
  9 29  1  0     0  0
 10 11  1  0     0  0
 10 16  2  0     0  0
 11 17  2  0     0  0
 12 13  2  0     0  0
 12 18  1  0     0  0
 12 28  1  0     0  0
 13 14  1  0     0  0
 13 30  1  0     0  0
 15 18  2  0     0  0
 16 19  1  0     0  0
 17 20  1  0     0  0
 19 20  2  0     0  0
 21 23  1  0     0  0
 22 28  1  0     0  0
 22 32  1  0     0  0
 22 33  1  0     0  0
 25 32  1  0     0  0
 26 34  1  0     0  0
 28 31  1  0     0  0
 29 34  1  0     0  0
 30 33  1  0     0  0
 31 35  1  0     0  0
 31 36  1  0     0  0
M  END
> <standard_type>
pIC50

> <# Confs.>
25

> <canonical_smiles>
O=C(O[C@@]1(CCN(CCCC2=NC3=CC=CC=C3N2)C)[C@@H](C(C)C)C4=C(C=C(F)C=C4)CC1)COC

> <standard_relation>
=

> <Publication_ID>
nan

> <predicted_activity_value>
nan

> <actual_activity_value>
-0.1553360374650618

> <Compound>
Mibefradil

> <standard_units>
uM

> hash
6864537718774107621

$$$$
31
XXILIB    08252103503D 0   0.00000     0.00000

 36 39  0     1  0            999 V2000
   -5.3542   -0.5600   -3.7081 F   0  0  0  0  0  1           0  0  0
    0.4914    1.9540    2.0719 O   0  0  0  0  0  2           0  0  0
   -0.5023    0.0000    1.3539 O   0  0  0  0  0  2           0  0  0
   -2.2995    0.5930    3.3550 O   0  0  0  0  0  2           0  0  0
    6.2701   -2.1939   -2.0751 N   0  0  0  0  0  3           0  0  0
    6.4257   -2.9625   -4.1523 N   0  0  0  0  0  3           0  0  0
    3.5888   -0.0000   -1.5320 N   0  0  1  0  0  3           0  0  0
   -4.2155   -0.7201   -3.0196 C   0  0  0  0  0  4           0  0  0
    5.5917   -2.5727   -3.2087 C   0  0  0  0  0  4           0  0  0
    7.6120   -2.3466   -2.3088 C   0  0  0  0  0  4           0  0  0
    7.6831   -2.8284   -3.6115 C   0  0  0  0  0  4           0  0  0
   -1.8438   -1.0575   -1.5494 C   0  0  0  0  0  4           0  0  0
   -2.5240    0.1761   -1.5399 C   0  0  0  0  0  4           0  0  0
   -3.7226    0.3291   -2.2554 C   0  0  0  0  0  4           0  0  0
   -3.5333   -1.9236   -3.0932 C   0  0  0  0  0  4           0  0  0
    8.7357   -2.1127   -1.5150 C   0  0  0  0  0  4           0  0  0
    8.9417   -3.1004   -4.1740 C   0  0  0  0  0  4           0  0  0
   -2.3513   -2.0850   -2.3695 C   0  0  0  0  0  4           0  0  0
    9.9806   -2.3894   -2.0900 C   0  0  0  0  0  4           0  0  0
   10.0840   -2.8750   -3.3956 C   0  0  0  0  0  4           0  0  0
   -0.2131    0.9723    2.2645 C   0  0  0  0  0  4           0  0  0
    0.0000    0.0000    0.0000 C   0  0  2  0  0  4           0  0  0
   -0.8995    0.6472    3.5642 C   0  0  0  0  0  4           0  0  0
   -2.9950    0.2883    4.5560 C   0  0  0  0  0  4           0  0  0
    2.1287   -0.0000   -1.4120 C   0  0  0  0  0  4           0  0  0
    4.0442   -0.0000   -2.9231 C   0  0  0  0  0  4           0  0  0
    4.2045    1.0762   -0.7582 C   0  0  0  0  0  4           0  0  0
   -0.5613   -1.2917   -0.7322 C   0  0  1  0  0  4           0  0  0
    4.1092   -2.5270   -3.2948 C   0  0  0  0  0  4           0  0  0
   -1.9878    1.3531   -0.7794 C   0  0  0  0  0  4           0  0  0
   -0.7008   -2.4821    0.2377 C   0  0  2  0  0  4           0  0  0
    1.5266   -0.0000   -0.0000 C   0  0  0  0  0  4           0  0  0
   -0.4690    1.2837   -0.7191 C   0  0  0  0  0  4           0  0  0
    3.6216   -1.1760   -3.8145 C   0  0  0  0  0  4           0  0  0
   -1.6517   -2.2084    1.4092 C   0  0  0  0  0  4           0  0  0
    0.6699   -2.9023    0.7790 C   0  0  0  0  0  4           0  0  0
  1  8  1  0     0  0
  2 21  2  0     0  0
  3 21  1  0     0  0
  3 22  1  0     0  0
  4 23  1  0     0  0
  4 24  1  0     0  0
  5  9  1  0     0  0
  5 10  1  0     0  0
  6  9  2  0     0  0
  6 11  1  0     0  0
  7 25  1  0     0  0
  7 26  1  0     0  0
  7 27  1  0     0  0
  8 14  2  0     0  0
  8 15  1  0     0  0
  9 29  1  0     0  0
 10 11  1  0     0  0
 10 16  2  0     0  0
 11 17  2  0     0  0
 12 13  2  0     0  0
 12 18  1  0     0  0
 12 28  1  0     0  0
 13 14  1  0     0  0
 13 30  1  0     0  0
 15 18  2  0     0  0
 16 19  1  0     0  0
 17 20  1  0     0  0
 19 20  2  0     0  0
 21 23  1  0     0  0
 22 28  1  0     0  0
 22 32  1  0     0  0
 22 33  1  0     0  0
 25 32  1  0     0  0
 26 34  1  0     0  0
 28 31  1  0     0  0
 29 34  1  0     0  0
 30 33  1  0     0  0
 31 35  1  0     0  0
 31 36  1  0     0  0
M  END
> <standard_type>
pIC50

> <# Confs.>
25

> <canonical_smiles>
O=C(O[C@@]1(CCN(CCCC2=NC3=CC=CC=C3N2)C)[C@@H](C(C)C)C4=C(C=C(F)C=C4)CC1)COC

> <standard_relation>
=

> <Publication_ID>
nan

> <predicted_activity_value>
nan

> <actual_activity_value>
-0.1553360374650618

> <Compound>
Mibefradil

> <standard_units>
uM

> hash
6864537718774107621

$$$$
31
XXILIB    08252103503D 0   0.00000     0.00000

 36 39  0     1  0            999 V2000
   -5.3542   -0.5600   -3.7081 F   0  0  0  0  0  1           0  0  0
    0.4914    1.9540    2.0719 O   0  0  0  0  0  2           0  0  0
   -0.5023    0.0000    1.3539 O   0  0  0  0  0  2           0  0  0
   -0.6002    1.6516    4.5172 O   0  0  0  0  0  2           0  0  0
    6.0705    1.8545   -4.2341 N   0  0  0  0  0  3           0  0  0
    6.5838    3.1081   -2.4750 N   0  0  0  0  0  3           0  0  0
    3.5888    0.0000   -1.5320 N   0  0  1  0  0  3           0  0  0
   -4.2155   -0.7201   -3.0196 C   0  0  0  0  0  4           0  0  0
    5.5943    2.5915   -3.1763 C   0  0  0  0  0  4           0  0  0
    7.4401    1.8998   -4.2047 C   0  0  0  0  0  4           0  0  0
    7.7359    2.6889   -3.0984 C   0  0  0  0  0  4           0  0  0
   -1.8438   -1.0575   -1.5494 C   0  0  0  0  0  4           0  0  0
   -2.5240    0.1761   -1.5399 C   0  0  0  0  0  4           0  0  0
   -3.7226    0.3291   -2.2554 C   0  0  0  0  0  4           0  0  0
   -3.5333   -1.9236   -3.0932 C   0  0  0  0  0  4           0  0  0
    8.4158    1.3358   -5.0276 C   0  0  0  0  0  4           0  0  0
    9.0801    2.9434   -2.7776 C   0  0  0  0  0  4           0  0  0
   -2.3513   -2.0850   -2.3695 C   0  0  0  0  0  4           0  0  0
    9.7487    1.5996   -4.6946 C   0  0  0  0  0  4           0  0  0
   10.0771    2.3892   -3.5902 C   0  0  0  0  0  4           0  0  0
   -0.2131    0.9723    2.2645 C   0  0  0  0  0  4           0  0  0
    0.0000    0.0000    0.0000 C   0  0  2  0  0  4           0  0  0
   -0.8995    0.6472    3.5642 C   0  0  0  0  0  4           0  0  0
   -1.5511    2.7067    4.4792 C   0  0  0  0  0  4           0  0  0
    2.1287    0.0000   -1.4120 C   0  0  0  0  0  4           0  0  0
    4.2100    1.1684   -0.9062 C   0  0  0  0  0  4           0  0  0
    4.1799   -1.2496   -1.0576 C   0  0  0  0  0  4           0  0  0
   -0.5613   -1.2917   -0.7322 C   0  0  1  0  0  4           0  0  0
    4.1405    2.7481   -2.9131 C   0  0  0  0  0  4           0  0  0
   -1.9878    1.3531   -0.7794 C   0  0  0  0  0  4           0  0  0
   -0.7008   -2.4821    0.2377 C   0  0  2  0  0  4           0  0  0
    1.5266   -0.0000    0.0000 C   0  0  0  0  0  4           0  0  0
   -0.4690    1.2837   -0.7191 C   0  0  0  0  0  4           0  0  0
    3.8174    2.5557   -1.4327 C   0  0  0  0  0  4           0  0  0
   -1.6517   -2.2084    1.4092 C   0  0  0  0  0  4           0  0  0
    0.6699   -2.9023    0.7790 C   0  0  0  0  0  4           0  0  0
  1  8  1  0     0  0
  2 21  2  0     0  0
  3 21  1  0     0  0
  3 22  1  0     0  0
  4 23  1  0     0  0
  4 24  1  0     0  0
  5  9  1  0     0  0
  5 10  1  0     0  0
  6  9  2  0     0  0
  6 11  1  0     0  0
  7 25  1  0     0  0
  7 26  1  0     0  0
  7 27  1  0     0  0
  8 14  2  0     0  0
  8 15  1  0     0  0
  9 29  1  0     0  0
 10 11  1  0     0  0
 10 16  2  0     0  0
 11 17  2  0     0  0
 12 13  2  0     0  0
 12 18  1  0     0  0
 12 28  1  0     0  0
 13 14  1  0     0  0
 13 30  1  0     0  0
 15 18  2  0     0  0
 16 19  1  0     0  0
 17 20  1  0     0  0
 19 20  2  0     0  0
 21 23  1  0     0  0
 22 28  1  0     0  0
 22 32  1  0     0  0
 22 33  1  0     0  0
 25 32  1  0     0  0
 26 34  1  0     0  0
 28 31  1  0     0  0
 29 34  1  0     0  0
 30 33  1  0     0  0
 31 35  1  0     0  0
 31 36  1  0     0  0
M  END
> <standard_type>
pIC50

> <# Confs.>
25

> <canonical_smiles>
O=C(O[C@@]1(CCN(CCCC2=NC3=CC=CC=C3N2)C)[C@@H](C(C)C)C4=C(C=C(F)C=C4)CC1)COC

> <standard_relation>
=

> <Publication_ID>
nan

> <predicted_activity_value>
nan

> <actual_activity_value>
-0.1553360374650618

> <Compound>
Mibefradil

> <standard_units>
uM

> hash
6864537718774107621

$$$$
31
XXILIB    08252103503D 0   0.00000     0.00000

 36 39  0     1  0            999 V2000
   -5.3542   -0.5600   -3.7081 F   0  0  0  0  0  1           0  0  0
    0.4914    1.9540    2.0719 O   0  0  0  0  0  2           0  0  0
   -0.5023    0.0000    1.3539 O   0  0  0  0  0  2           0  0  0
   -0.6002    1.6516    4.5172 O   0  0  0  0  0  2           0  0  0
    4.4490   -4.0679   -5.2387 N   0  0  0  0  0  3           0  0  0
    2.5646   -4.3338   -4.0951 N   0  0  0  0  0  3           0  0  0
    3.5888   -0.0000   -1.5320 N   0  0  1  0  0  3           0  0  0
   -4.2155   -0.7201   -3.0196 C   0  0  0  0  0  4           0  0  0
    3.6804   -3.6375   -4.1838 C   0  0  0  0  0  4           0  0  0
    3.7858   -5.0935   -5.8606 C   0  0  0  0  0  4           0  0  0
    2.6131   -5.2411   -5.1276 C   0  0  0  0  0  4           0  0  0
   -1.8438   -1.0575   -1.5494 C   0  0  0  0  0  4           0  0  0
   -2.5240    0.1761   -1.5399 C   0  0  0  0  0  4           0  0  0
   -3.7226    0.3291   -2.2554 C   0  0  0  0  0  4           0  0  0
   -3.5333   -1.9236   -3.0932 C   0  0  0  0  0  4           0  0  0
    4.1028   -5.8818   -6.9676 C   0  0  0  0  0  4           0  0  0
    1.6886   -6.2298   -5.5051 C   0  0  0  0  0  4           0  0  0
   -2.3513   -2.0850   -2.3695 C   0  0  0  0  0  4           0  0  0
    3.1722   -6.8616   -7.3294 C   0  0  0  0  0  4           0  0  0
    1.9861   -7.0345   -6.6122 C   0  0  0  0  0  4           0  0  0
   -0.2131    0.9723    2.2645 C   0  0  0  0  0  4           0  0  0
    0.0000    0.0000    0.0000 C   0  0  2  0  0  4           0  0  0
   -0.8995    0.6472    3.5642 C   0  0  0  0  0  4           0  0  0
    0.5711    1.3363    5.2571 C   0  0  0  0  0  4           0  0  0
    2.1287   -0.0000   -1.4120 C   0  0  0  0  0  4           0  0  0
    4.0442   -0.0000   -2.9231 C   0  0  0  0  0  4           0  0  0
    4.2045    1.0762   -0.7582 C   0  0  0  0  0  4           0  0  0
   -0.5613   -1.2917   -0.7322 C   0  0  1  0  0  4           0  0  0
    4.1092   -2.5270   -3.2948 C   0  0  0  0  0  4           0  0  0
   -1.9878    1.3531   -0.7794 C   0  0  0  0  0  4           0  0  0
   -0.7008   -2.4821    0.2377 C   0  0  2  0  0  4           0  0  0
    1.5266   -0.0000   -0.0000 C   0  0  0  0  0  4           0  0  0
   -0.4690    1.2837   -0.7191 C   0  0  0  0  0  4           0  0  0
    3.6216   -1.1760   -3.8145 C   0  0  0  0  0  4           0  0  0
   -1.6517   -2.2084    1.4092 C   0  0  0  0  0  4           0  0  0
    0.6699   -2.9023    0.7790 C   0  0  0  0  0  4           0  0  0
  1  8  1  0     0  0
  2 21  2  0     0  0
  3 21  1  0     0  0
  3 22  1  0     0  0
  4 23  1  0     0  0
  4 24  1  0     0  0
  5  9  1  0     0  0
  5 10  1  0     0  0
  6  9  2  0     0  0
  6 11  1  0     0  0
  7 25  1  0     0  0
  7 26  1  0     0  0
  7 27  1  0     0  0
  8 14  2  0     0  0
  8 15  1  0     0  0
  9 29  1  0     0  0
 10 11  1  0     0  0
 10 16  2  0     0  0
 11 17  2  0     0  0
 12 13  2  0     0  0
 12 18  1  0     0  0
 12 28  1  0     0  0
 13 14  1  0     0  0
 13 30  1  0     0  0
 15 18  2  0     0  0
 16 19  1  0     0  0
 17 20  1  0     0  0
 19 20  2  0     0  0
 21 23  1  0     0  0
 22 28  1  0     0  0
 22 32  1  0     0  0
 22 33  1  0     0  0
 25 32  1  0     0  0
 26 34  1  0     0  0
 28 31  1  0     0  0
 29 34  1  0     0  0
 30 33  1  0     0  0
 31 35  1  0     0  0
 31 36  1  0     0  0
M  END
> <standard_type>
pIC50

> <# Confs.>
25

> <canonical_smiles>
O=C(O[C@@]1(CCN(CCCC2=NC3=CC=CC=C3N2)C)[C@@H](C(C)C)C4=C(C=C(F)C=C4)CC1)COC

> <standard_relation>
=

> <Publication_ID>
nan

> <predicted_activity_value>
nan

> <actual_activity_value>
-0.1553360374650618

> <Compound>
Mibefradil

> <standard_units>
uM

> hash
6864537718774107621

$$$$
31
XXILIB    08252103503D 0   0.00000     0.00000

 36 39  0     1  0            999 V2000
   -5.3542   -0.5600   -3.7081 F   0  0  0  0  0  1           0  0  0
    0.4914    1.9540    2.0719 O   0  0  0  0  0  2           0  0  0
   -0.5023    0.0000    1.3539 O   0  0  0  0  0  2           0  0  0
   -0.6002    1.6516    4.5172 O   0  0  0  0  0  2           0  0  0
    6.2449   -3.0834   -2.1127 N   0  0  0  0  0  3           0  0  0
    6.4487   -2.1555   -4.1194 N   0  0  0  0  0  3           0  0  0
    3.5888   -0.0000   -1.5320 N   0  0  1  0  0  3           0  0  0
   -4.2155   -0.7201   -3.0196 C   0  0  0  0  0  4           0  0  0
    5.5917   -2.5727   -3.2087 C   0  0  0  0  0  4           0  0  0
    7.5939   -2.9836   -2.3339 C   0  0  0  0  0  4           0  0  0
    7.6952   -2.4023   -3.5933 C   0  0  0  0  0  4           0  0  0
   -1.8438   -1.0575   -1.5494 C   0  0  0  0  0  4           0  0  0
   -2.5240    0.1761   -1.5399 C   0  0  0  0  0  4           0  0  0
   -3.7226    0.3291   -2.2554 C   0  0  0  0  0  4           0  0  0
   -3.5333   -1.9236   -3.0932 C   0  0  0  0  0  4           0  0  0
    8.7006   -3.3426   -1.5634 C   0  0  0  0  0  4           0  0  0
    8.9685   -2.1572   -4.1347 C   0  0  0  0  0  4           0  0  0
   -2.3513   -2.0850   -2.3695 C   0  0  0  0  0  4           0  0  0
    9.9605   -3.0925   -2.1175 C   0  0  0  0  0  4           0  0  0
   10.0944   -2.5108   -3.3803 C   0  0  0  0  0  4           0  0  0
   -0.2131    0.9723    2.2645 C   0  0  0  0  0  4           0  0  0
    0.0000    0.0000    0.0000 C   0  0  2  0  0  4           0  0  0
   -0.8995    0.6472    3.5642 C   0  0  0  0  0  4           0  0  0
   -1.5511    2.7067    4.4792 C   0  0  0  0  0  4           0  0  0
    2.1287   -0.0000   -1.4120 C   0  0  0  0  0  4           0  0  0
    4.0442   -0.0000   -2.9231 C   0  0  0  0  0  4           0  0  0
    4.2045    1.0762   -0.7582 C   0  0  0  0  0  4           0  0  0
   -0.5613   -1.2917   -0.7322 C   0  0  1  0  0  4           0  0  0
    4.1092   -2.5270   -3.2948 C   0  0  0  0  0  4           0  0  0
   -1.9878    1.3531   -0.7794 C   0  0  0  0  0  4           0  0  0
   -0.7008   -2.4821    0.2377 C   0  0  2  0  0  4           0  0  0
    1.5266   -0.0000   -0.0000 C   0  0  0  0  0  4           0  0  0
   -0.4690    1.2837   -0.7191 C   0  0  0  0  0  4           0  0  0
    3.6216   -1.1760   -3.8145 C   0  0  0  0  0  4           0  0  0
   -1.6517   -2.2084    1.4092 C   0  0  0  0  0  4           0  0  0
    0.6699   -2.9023    0.7790 C   0  0  0  0  0  4           0  0  0
  1  8  1  0     0  0
  2 21  2  0     0  0
  3 21  1  0     0  0
  3 22  1  0     0  0
  4 23  1  0     0  0
  4 24  1  0     0  0
  5  9  1  0     0  0
  5 10  1  0     0  0
  6  9  2  0     0  0
  6 11  1  0     0  0
  7 25  1  0     0  0
  7 26  1  0     0  0
  7 27  1  0     0  0
  8 14  2  0     0  0
  8 15  1  0     0  0
  9 29  1  0     0  0
 10 11  1  0     0  0
 10 16  2  0     0  0
 11 17  2  0     0  0
 12 13  2  0     0  0
 12 18  1  0     0  0
 12 28  1  0     0  0
 13 14  1  0     0  0
 13 30  1  0     0  0
 15 18  2  0     0  0
 16 19  1  0     0  0
 17 20  1  0     0  0
 19 20  2  0     0  0
 21 23  1  0     0  0
 22 28  1  0     0  0
 22 32  1  0     0  0
 22 33  1  0     0  0
 25 32  1  0     0  0
 26 34  1  0     0  0
 28 31  1  0     0  0
 29 34  1  0     0  0
 30 33  1  0     0  0
 31 35  1  0     0  0
 31 36  1  0     0  0
M  END
> <standard_type>
pIC50

> <# Confs.>
25

> <canonical_smiles>
O=C(O[C@@]1(CCN(CCCC2=NC3=CC=CC=C3N2)C)[C@@H](C(C)C)C4=C(C=C(F)C=C4)CC1)COC

> <standard_relation>
=

> <Publication_ID>
nan

> <predicted_activity_value>
nan

> <actual_activity_value>
-0.1553360374650618

> <Compound>
Mibefradil

> <standard_units>
uM

> hash
6864537718774107621

$$$$
31
XXILIB    08252103503D 0   0.00000     0.00000

 36 39  0     1  0            999 V2000
   -5.3542   -0.5600   -3.7081 F   0  0  0  0  0  1           0  0  0
    0.4914    1.9540    2.0719 O   0  0  0  0  0  2           0  0  0
   -0.5023    0.0000    1.3539 O   0  0  0  0  0  2           0  0  0
   -0.6002    1.6516    4.5172 O   0  0  0  0  0  2           0  0  0
    2.4985    4.3614   -3.8977 N   0  0  0  0  0  3           0  0  0
    4.4918    5.1881   -3.3757 N   0  0  0  0  0  3           0  0  0
    3.5888    0.0000   -1.5320 N   0  0  1  0  0  3           0  0  0
   -4.2155   -0.7201   -3.0196 C   0  0  0  0  0  4           0  0  0
    3.7461    4.1010   -3.3835 C   0  0  0  0  0  4           0  0  0
    2.4454    5.6873   -4.2407 C   0  0  0  0  0  4           0  0  0
    3.7011    6.1815   -3.9043 C   0  0  0  0  0  4           0  0  0
   -1.8438   -1.0575   -1.5494 C   0  0  0  0  0  4           0  0  0
   -2.5240    0.1761   -1.5399 C   0  0  0  0  0  4           0  0  0
   -3.7226    0.3291   -2.2554 C   0  0  0  0  0  4           0  0  0
   -3.5333   -1.9236   -3.0932 C   0  0  0  0  0  4           0  0  0
    1.4360    6.4729   -4.7985 C   0  0  0  0  0  4           0  0  0
    3.9862    7.5390   -4.1291 C   0  0  0  0  0  4           0  0  0
   -2.3513   -2.0850   -2.3695 C   0  0  0  0  0  4           0  0  0
    1.7361    7.8220   -5.0150 C   0  0  0  0  0  4           0  0  0
    2.9878    8.3478   -4.6866 C   0  0  0  0  0  4           0  0  0
   -0.2131    0.9723    2.2645 C   0  0  0  0  0  4           0  0  0
    0.0000    0.0000    0.0000 C   0  0  2  0  0  4           0  0  0
   -0.8995    0.6472    3.5642 C   0  0  0  0  0  4           0  0  0
    0.5711    1.3363    5.2571 C   0  0  0  0  0  4           0  0  0
    2.1287    0.0000   -1.4120 C   0  0  0  0  0  4           0  0  0
    4.2100    1.1684   -0.9062 C   0  0  0  0  0  4           0  0  0
    4.1799   -1.2496   -1.0576 C   0  0  0  0  0  4           0  0  0
   -0.5613   -1.2917   -0.7322 C   0  0  1  0  0  4           0  0  0
    4.1405    2.7481   -2.9131 C   0  0  0  0  0  4           0  0  0
   -1.9878    1.3531   -0.7794 C   0  0  0  0  0  4           0  0  0
   -0.7008   -2.4821    0.2377 C   0  0  2  0  0  4           0  0  0
    1.5266   -0.0000    0.0000 C   0  0  0  0  0  4           0  0  0
   -0.4690    1.2837   -0.7191 C   0  0  0  0  0  4           0  0  0
    3.8174    2.5557   -1.4327 C   0  0  0  0  0  4           0  0  0
   -1.6517   -2.2084    1.4092 C   0  0  0  0  0  4           0  0  0
    0.6699   -2.9023    0.7790 C   0  0  0  0  0  4           0  0  0
  1  8  1  0     0  0
  2 21  2  0     0  0
  3 21  1  0     0  0
  3 22  1  0     0  0
  4 23  1  0     0  0
  4 24  1  0     0  0
  5  9  1  0     0  0
  5 10  1  0     0  0
  6  9  2  0     0  0
  6 11  1  0     0  0
  7 25  1  0     0  0
  7 26  1  0     0  0
  7 27  1  0     0  0
  8 14  2  0     0  0
  8 15  1  0     0  0
  9 29  1  0     0  0
 10 11  1  0     0  0
 10 16  2  0     0  0
 11 17  2  0     0  0
 12 13  2  0     0  0
 12 18  1  0     0  0
 12 28  1  0     0  0
 13 14  1  0     0  0
 13 30  1  0     0  0
 15 18  2  0     0  0
 16 19  1  0     0  0
 17 20  1  0     0  0
 19 20  2  0     0  0
 21 23  1  0     0  0
 22 28  1  0     0  0
 22 32  1  0     0  0
 22 33  1  0     0  0
 25 32  1  0     0  0
 26 34  1  0     0  0
 28 31  1  0     0  0
 29 34  1  0     0  0
 30 33  1  0     0  0
 31 35  1  0     0  0
 31 36  1  0     0  0
M  END
> <standard_type>
pIC50

> <# Confs.>
25

> <canonical_smiles>
O=C(O[C@@]1(CCN(CCCC2=NC3=CC=CC=C3N2)C)[C@@H](C(C)C)C4=C(C=C(F)C=C4)CC1)COC

> <standard_relation>
=

> <Publication_ID>
nan

> <predicted_activity_value>
nan

> <actual_activity_value>
-0.1553360374650618

> <Compound>
Mibefradil

> <standard_units>
uM

> hash
6864537718774107621

$$$$
31
XXILIB    08252103503D 0   0.00000     0.00000

 36 39  0     1  0            999 V2000
   -5.3542   -0.5600   -3.7081 F   0  0  0  0  0  1           0  0  0
    0.4914    1.9540    2.0719 O   0  0  0  0  0  2           0  0  0
   -0.5023    0.0000    1.3539 O   0  0  0  0  0  2           0  0  0
   -0.4409   -0.6072    4.0363 O   0  0  0  0  0  2           0  0  0
    6.2701   -2.1939   -2.0751 N   0  0  0  0  0  3           0  0  0
    6.4257   -2.9625   -4.1523 N   0  0  0  0  0  3           0  0  0
    3.5888   -0.0000   -1.5320 N   0  0  1  0  0  3           0  0  0
   -4.2155   -0.7201   -3.0196 C   0  0  0  0  0  4           0  0  0
    5.5917   -2.5727   -3.2087 C   0  0  0  0  0  4           0  0  0
    7.6120   -2.3466   -2.3088 C   0  0  0  0  0  4           0  0  0
    7.6831   -2.8284   -3.6115 C   0  0  0  0  0  4           0  0  0
   -1.8438   -1.0575   -1.5494 C   0  0  0  0  0  4           0  0  0
   -2.5240    0.1761   -1.5399 C   0  0  0  0  0  4           0  0  0
   -3.7226    0.3291   -2.2554 C   0  0  0  0  0  4           0  0  0
   -3.5333   -1.9236   -3.0932 C   0  0  0  0  0  4           0  0  0
    8.7357   -2.1127   -1.5150 C   0  0  0  0  0  4           0  0  0
    8.9417   -3.1004   -4.1740 C   0  0  0  0  0  4           0  0  0
   -2.3513   -2.0850   -2.3695 C   0  0  0  0  0  4           0  0  0
    9.9806   -2.3894   -2.0900 C   0  0  0  0  0  4           0  0  0
   10.0840   -2.8750   -3.3956 C   0  0  0  0  0  4           0  0  0
   -0.2131    0.9723    2.2645 C   0  0  0  0  0  4           0  0  0
    0.0000    0.0000    0.0000 C   0  0  2  0  0  4           0  0  0
   -0.8995    0.6472    3.5642 C   0  0  0  0  0  4           0  0  0
   -1.0610   -0.9606    5.2649 C   0  0  0  0  0  4           0  0  0
    2.1287   -0.0000   -1.4120 C   0  0  0  0  0  4           0  0  0
    4.0442   -0.0000   -2.9231 C   0  0  0  0  0  4           0  0  0
    4.2045    1.0762   -0.7582 C   0  0  0  0  0  4           0  0  0
   -0.5613   -1.2917   -0.7322 C   0  0  1  0  0  4           0  0  0
    4.1092   -2.5270   -3.2948 C   0  0  0  0  0  4           0  0  0
   -1.9878    1.3531   -0.7794 C   0  0  0  0  0  4           0  0  0
   -0.7008   -2.4821    0.2377 C   0  0  2  0  0  4           0  0  0
    1.5266   -0.0000   -0.0000 C   0  0  0  0  0  4           0  0  0
   -0.4690    1.2837   -0.7191 C   0  0  0  0  0  4           0  0  0
    3.6216   -1.1760   -3.8145 C   0  0  0  0  0  4           0  0  0
   -1.6517   -2.2084    1.4092 C   0  0  0  0  0  4           0  0  0
    0.6699   -2.9023    0.7790 C   0  0  0  0  0  4           0  0  0
  1  8  1  0     0  0
  2 21  2  0     0  0
  3 21  1  0     0  0
  3 22  1  0     0  0
  4 23  1  0     0  0
  4 24  1  0     0  0
  5  9  1  0     0  0
  5 10  1  0     0  0
  6  9  2  0     0  0
  6 11  1  0     0  0
  7 25  1  0     0  0
  7 26  1  0     0  0
  7 27  1  0     0  0
  8 14  2  0     0  0
  8 15  1  0     0  0
  9 29  1  0     0  0
 10 11  1  0     0  0
 10 16  2  0     0  0
 11 17  2  0     0  0
 12 13  2  0     0  0
 12 18  1  0     0  0
 12 28  1  0     0  0
 13 14  1  0     0  0
 13 30  1  0     0  0
 15 18  2  0     0  0
 16 19  1  0     0  0
 17 20  1  0     0  0
 19 20  2  0     0  0
 21 23  1  0     0  0
 22 28  1  0     0  0
 22 32  1  0     0  0
 22 33  1  0     0  0
 25 32  1  0     0  0
 26 34  1  0     0  0
 28 31  1  0     0  0
 29 34  1  0     0  0
 30 33  1  0     0  0
 31 35  1  0     0  0
 31 36  1  0     0  0
M  END
> <standard_type>
pIC50

> <# Confs.>
25

> <canonical_smiles>
O=C(O[C@@]1(CCN(CCCC2=NC3=CC=CC=C3N2)C)[C@@H](C(C)C)C4=C(C=C(F)C=C4)CC1)COC

> <standard_relation>
=

> <Publication_ID>
nan

> <predicted_activity_value>
nan

> <actual_activity_value>
-0.1553360374650618

> <Compound>
Mibefradil

> <standard_units>
uM

> hash
6864537718774107621

$$$$
31
XXILIB    08252103503D 0   0.00000     0.00000

 36 39  0     1  0            999 V2000
   -5.3542   -0.5600   -3.7081 F   0  0  0  0  0  1           0  0  0
    0.4914    1.9540    2.0719 O   0  0  0  0  0  2           0  0  0
   -0.5023    0.0000    1.3539 O   0  0  0  0  0  2           0  0  0
   -0.6002    1.6516    4.5172 O   0  0  0  0  0  2           0  0  0
    3.0530    5.7187   -0.7348 N   0  0  0  0  0  3           0  0  0
    4.6943    5.6806   -2.2294 N   0  0  0  0  0  3           0  0  0
    3.5888    0.0000   -1.5320 N   0  0  1  0  0  3           0  0  0
   -4.2155   -0.7201   -3.0196 C   0  0  0  0  0  4           0  0  0
    4.1214    5.0195   -1.2432 C   0  0  0  0  0  4           0  0  0
    2.9345    6.8894   -1.4375 C   0  0  0  0  0  4           0  0  0
    3.9709    6.8425   -2.3638 C   0  0  0  0  0  4           0  0  0
   -1.8438   -1.0575   -1.5494 C   0  0  0  0  0  4           0  0  0
   -2.5240    0.1761   -1.5399 C   0  0  0  0  0  4           0  0  0
   -3.7226    0.3291   -2.2554 C   0  0  0  0  0  4           0  0  0
   -3.5333   -1.9236   -3.0932 C   0  0  0  0  0  4           0  0  0
    2.0371    7.9539   -1.3438 C   0  0  0  0  0  4           0  0  0
    4.1394    7.9128   -3.2586 C   0  0  0  0  0  4           0  0  0
   -2.3513   -2.0850   -2.3695 C   0  0  0  0  0  4           0  0  0
    2.2195    9.0114   -2.2413 C   0  0  0  0  0  4           0  0  0
    3.2517    8.9934   -3.1822 C   0  0  0  0  0  4           0  0  0
   -0.2131    0.9723    2.2645 C   0  0  0  0  0  4           0  0  0
    0.0000    0.0000    0.0000 C   0  0  2  0  0  4           0  0  0
   -0.8995    0.6472    3.5642 C   0  0  0  0  0  4           0  0  0
   -1.2268    1.3898    5.7653 C   0  0  0  0  0  4           0  0  0
    2.1287    0.0000   -1.4120 C   0  0  0  0  0  4           0  0  0
    4.2100    1.1684   -0.9062 C   0  0  0  0  0  4           0  0  0
    4.1799   -1.2496   -1.0576 C   0  0  0  0  0  4           0  0  0
   -0.5613   -1.2917   -0.7322 C   0  0  1  0  0  4           0  0  0
    4.5276    3.6956   -0.7052 C   0  0  0  0  0  4           0  0  0
   -1.9878    1.3531   -0.7794 C   0  0  0  0  0  4           0  0  0
   -0.7008   -2.4821    0.2377 C   0  0  2  0  0  4           0  0  0
    1.5266   -0.0000    0.0000 C   0  0  0  0  0  4           0  0  0
   -0.4690    1.2837   -0.7191 C   0  0  0  0  0  4           0  0  0
    3.8174    2.5557   -1.4327 C   0  0  0  0  0  4           0  0  0
   -1.6517   -2.2084    1.4092 C   0  0  0  0  0  4           0  0  0
    0.6699   -2.9023    0.7790 C   0  0  0  0  0  4           0  0  0
  1  8  1  0     0  0
  2 21  2  0     0  0
  3 21  1  0     0  0
  3 22  1  0     0  0
  4 23  1  0     0  0
  4 24  1  0     0  0
  5  9  1  0     0  0
  5 10  1  0     0  0
  6  9  2  0     0  0
  6 11  1  0     0  0
  7 25  1  0     0  0
  7 26  1  0     0  0
  7 27  1  0     0  0
  8 14  2  0     0  0
  8 15  1  0     0  0
  9 29  1  0     0  0
 10 11  1  0     0  0
 10 16  2  0     0  0
 11 17  2  0     0  0
 12 13  2  0     0  0
 12 18  1  0     0  0
 12 28  1  0     0  0
 13 14  1  0     0  0
 13 30  1  0     0  0
 15 18  2  0     0  0
 16 19  1  0     0  0
 17 20  1  0     0  0
 19 20  2  0     0  0
 21 23  1  0     0  0
 22 28  1  0     0  0
 22 32  1  0     0  0
 22 33  1  0     0  0
 25 32  1  0     0  0
 26 34  1  0     0  0
 28 31  1  0     0  0
 29 34  1  0     0  0
 30 33  1  0     0  0
 31 35  1  0     0  0
 31 36  1  0     0  0
M  END
> <standard_type>
pIC50

> <# Confs.>
25

> <canonical_smiles>
O=C(O[C@@]1(CCN(CCCC2=NC3=CC=CC=C3N2)C)[C@@H](C(C)C)C4=C(C=C(F)C=C4)CC1)COC

> <standard_relation>
=

> <Publication_ID>
nan

> <predicted_activity_value>
nan

> <actual_activity_value>
-0.1553360374650618

> <Compound>
Mibefradil

> <standard_units>
uM

> hash
6864537718774107621

$$$$
31
XXILIB    08252103503D 0   0.00000     0.00000

 36 39  0     1  0            999 V2000
   -5.3542   -0.5600   -3.7081 F   0  0  0  0  0  1           0  0  0
    0.4914    1.9540    2.0719 O   0  0  0  0  0  2           0  0  0
   -0.5023    0.0000    1.3539 O   0  0  0  0  0  2           0  0  0
   -0.6002    1.6516    4.5172 O   0  0  0  0  0  2           0  0  0
    3.1521   -4.8064   -3.6905 N   0  0  0  0  0  3           0  0  0
    3.7389   -3.6623   -5.5005 N   0  0  0  0  0  3           0  0  0
    3.5888   -0.0000   -1.5320 N   0  0  1  0  0  3           0  0  0
   -4.2155   -0.7201   -3.0196 C   0  0  0  0  0  4           0  0  0
    3.6804   -3.6375   -4.1838 C   0  0  0  0  0  4           0  0  0
    2.8604   -5.6247   -4.7506 C   0  0  0  0  0  4           0  0  0
    3.2348   -4.8876   -5.8691 C   0  0  0  0  0  4           0  0  0
   -1.8438   -1.0575   -1.5494 C   0  0  0  0  0  4           0  0  0
   -2.5240    0.1761   -1.5399 C   0  0  0  0  0  4           0  0  0
   -3.7226    0.3291   -2.2554 C   0  0  0  0  0  4           0  0  0
   -3.5333   -1.9236   -3.0932 C   0  0  0  0  0  4           0  0  0
    2.3163   -6.9076   -4.8244 C   0  0  0  0  0  4           0  0  0
    3.0629   -5.4461   -7.1470 C   0  0  0  0  0  4           0  0  0
   -2.3513   -2.0850   -2.3695 C   0  0  0  0  0  4           0  0  0
    2.1512   -7.4483   -6.1040 C   0  0  0  0  0  4           0  0  0
    2.5168   -6.7320   -7.2460 C   0  0  0  0  0  4           0  0  0
   -0.2131    0.9723    2.2645 C   0  0  0  0  0  4           0  0  0
    0.0000    0.0000    0.0000 C   0  0  2  0  0  4           0  0  0
   -0.8995    0.6472    3.5642 C   0  0  0  0  0  4           0  0  0
    0.5711    1.3363    5.2571 C   0  0  0  0  0  4           0  0  0
    2.1287   -0.0000   -1.4120 C   0  0  0  0  0  4           0  0  0
    4.0442   -0.0000   -2.9231 C   0  0  0  0  0  4           0  0  0
    4.2045    1.0762   -0.7582 C   0  0  0  0  0  4           0  0  0
   -0.5613   -1.2917   -0.7322 C   0  0  1  0  0  4           0  0  0
    4.1092   -2.5270   -3.2948 C   0  0  0  0  0  4           0  0  0
   -1.9878    1.3531   -0.7794 C   0  0  0  0  0  4           0  0  0
   -0.7008   -2.4821    0.2377 C   0  0  2  0  0  4           0  0  0
    1.5266   -0.0000   -0.0000 C   0  0  0  0  0  4           0  0  0
   -0.4690    1.2837   -0.7191 C   0  0  0  0  0  4           0  0  0
    3.6216   -1.1760   -3.8145 C   0  0  0  0  0  4           0  0  0
   -1.6517   -2.2084    1.4092 C   0  0  0  0  0  4           0  0  0
    0.6699   -2.9023    0.7790 C   0  0  0  0  0  4           0  0  0
  1  8  1  0     0  0
  2 21  2  0     0  0
  3 21  1  0     0  0
  3 22  1  0     0  0
  4 23  1  0     0  0
  4 24  1  0     0  0
  5  9  1  0     0  0
  5 10  1  0     0  0
  6  9  2  0     0  0
  6 11  1  0     0  0
  7 25  1  0     0  0
  7 26  1  0     0  0
  7 27  1  0     0  0
  8 14  2  0     0  0
  8 15  1  0     0  0
  9 29  1  0     0  0
 10 11  1  0     0  0
 10 16  2  0     0  0
 11 17  2  0     0  0
 12 13  2  0     0  0
 12 18  1  0     0  0
 12 28  1  0     0  0
 13 14  1  0     0  0
 13 30  1  0     0  0
 15 18  2  0     0  0
 16 19  1  0     0  0
 17 20  1  0     0  0
 19 20  2  0     0  0
 21 23  1  0     0  0
 22 28  1  0     0  0
 22 32  1  0     0  0
 22 33  1  0     0  0
 25 32  1  0     0  0
 26 34  1  0     0  0
 28 31  1  0     0  0
 29 34  1  0     0  0
 30 33  1  0     0  0
 31 35  1  0     0  0
 31 36  1  0     0  0
M  END
> <standard_type>
pIC50

> <# Confs.>
25

> <canonical_smiles>
O=C(O[C@@]1(CCN(CCCC2=NC3=CC=CC=C3N2)C)[C@@H](C(C)C)C4=C(C=C(F)C=C4)CC1)COC

> <standard_relation>
=

> <Publication_ID>
nan

> <predicted_activity_value>
nan

> <actual_activity_value>
-0.1553360374650618

> <Compound>
Mibefradil

> <standard_units>
uM

> hash
6864537718774107621

$$$$
31
XXILIB    08252103503D 0   0.00000     0.00000

 36 39  0     1  0            999 V2000
   -5.3542   -0.5600   -3.7081 F   0  0  0  0  0  1           0  0  0
    0.4914    1.9540    2.0719 O   0  0  0  0  0  2           0  0  0
   -0.5023    0.0000    1.3539 O   0  0  0  0  0  2           0  0  0
   -2.2995    0.5930    3.3550 O   0  0  0  0  0  2           0  0  0
    3.1478    4.3813    1.2681 N   0  0  0  0  0  3           0  0  0
    4.8783    3.0574    1.6949 N   0  0  0  0  0  3           0  0  0
    3.5888    0.0000   -1.5320 N   0  0  1  0  0  3           0  0  0
   -4.2155   -0.7201   -3.0196 C   0  0  0  0  0  4           0  0  0
    4.2156    3.6904    0.7473 C   0  0  0  0  0  4           0  0  0
    3.1295    4.1816    2.6240 C   0  0  0  0  0  4           0  0  0
    4.2188    3.3513    2.8655 C   0  0  0  0  0  4           0  0  0
   -1.8438   -1.0575   -1.5494 C   0  0  0  0  0  4           0  0  0
   -2.5240    0.1761   -1.5399 C   0  0  0  0  0  4           0  0  0
   -3.7226    0.3291   -2.2554 C   0  0  0  0  0  4           0  0  0
   -3.5333   -1.9236   -3.0932 C   0  0  0  0  0  4           0  0  0
    2.2779    4.6416    3.6292 C   0  0  0  0  0  4           0  0  0
    4.4910    2.9432    4.1823 C   0  0  0  0  0  4           0  0  0
   -2.3513   -2.0850   -2.3695 C   0  0  0  0  0  4           0  0  0
    2.5626    4.2254    4.9341 C   0  0  0  0  0  4           0  0  0
    3.6487    3.3909    5.2079 C   0  0  0  0  0  4           0  0  0
   -0.2131    0.9723    2.2645 C   0  0  0  0  0  4           0  0  0
    0.0000    0.0000    0.0000 C   0  0  2  0  0  4           0  0  0
   -0.8995    0.6472    3.5642 C   0  0  0  0  0  4           0  0  0
   -2.9950    0.2883    4.5560 C   0  0  0  0  0  4           0  0  0
    2.1287    0.0000   -1.4120 C   0  0  0  0  0  4           0  0  0
    4.2100    1.1684   -0.9062 C   0  0  0  0  0  4           0  0  0
    4.1799   -1.2496   -1.0576 C   0  0  0  0  0  4           0  0  0
   -0.5613   -1.2917   -0.7322 C   0  0  1  0  0  4           0  0  0
    4.5276    3.6956   -0.7052 C   0  0  0  0  0  4           0  0  0
   -1.9878    1.3531   -0.7794 C   0  0  0  0  0  4           0  0  0
   -0.7008   -2.4821    0.2377 C   0  0  2  0  0  4           0  0  0
    1.5266   -0.0000    0.0000 C   0  0  0  0  0  4           0  0  0
   -0.4690    1.2837   -0.7191 C   0  0  0  0  0  4           0  0  0
    3.8174    2.5557   -1.4327 C   0  0  0  0  0  4           0  0  0
   -1.6517   -2.2084    1.4092 C   0  0  0  0  0  4           0  0  0
    0.6699   -2.9023    0.7790 C   0  0  0  0  0  4           0  0  0
  1  8  1  0     0  0
  2 21  2  0     0  0
  3 21  1  0     0  0
  3 22  1  0     0  0
  4 23  1  0     0  0
  4 24  1  0     0  0
  5  9  1  0     0  0
  5 10  1  0     0  0
  6  9  2  0     0  0
  6 11  1  0     0  0
  7 25  1  0     0  0
  7 26  1  0     0  0
  7 27  1  0     0  0
  8 14  2  0     0  0
  8 15  1  0     0  0
  9 29  1  0     0  0
 10 11  1  0     0  0
 10 16  2  0     0  0
 11 17  2  0     0  0
 12 13  2  0     0  0
 12 18  1  0     0  0
 12 28  1  0     0  0
 13 14  1  0     0  0
 13 30  1  0     0  0
 15 18  2  0     0  0
 16 19  1  0     0  0
 17 20  1  0     0  0
 19 20  2  0     0  0
 21 23  1  0     0  0
 22 28  1  0     0  0
 22 32  1  0     0  0
 22 33  1  0     0  0
 25 32  1  0     0  0
 26 34  1  0     0  0
 28 31  1  0     0  0
 29 34  1  0     0  0
 30 33  1  0     0  0
 31 35  1  0     0  0
 31 36  1  0     0  0
M  END
> <standard_type>
pIC50

> <# Confs.>
25

> <canonical_smiles>
O=C(O[C@@]1(CCN(CCCC2=NC3=CC=CC=C3N2)C)[C@@H](C(C)C)C4=C(C=C(F)C=C4)CC1)COC

> <standard_relation>
=

> <Publication_ID>
nan

> <predicted_activity_value>
nan

> <actual_activity_value>
-0.1553360374650618

> <Compound>
Mibefradil

> <standard_units>
uM

> hash
6864537718774107621

$$$$
31
XXILIB    08252103503D 0   0.00000     0.00000

 36 39  0     1  0            999 V2000
   -5.3542   -0.5600   -3.7081 F   0  0  0  0  0  1           0  0  0
    0.4914    1.9540    2.0719 O   0  0  0  0  0  2           0  0  0
   -0.5023    0.0000    1.3539 O   0  0  0  0  0  2           0  0  0
   -1.2055    1.8499    4.2472 O   0  0  0  0  0  2           0  0  0
    5.7798    1.1890    1.7369 N   0  0  0  0  0  3           0  0  0
    6.0227   -1.0005    2.0143 N   0  0  0  0  0  3           0  0  0
    3.5888   -0.0000   -1.5320 N   0  0  1  0  0  3           0  0  0
   -4.2155   -0.7201   -3.0196 C   0  0  0  0  0  4           0  0  0
    6.0932   -0.0114    1.1456 C   0  0  0  0  0  4           0  0  0
    5.4970    0.9543    3.0573 C   0  0  0  0  0  4           0  0  0
    5.6546   -0.4196    3.2053 C   0  0  0  0  0  4           0  0  0
   -1.8438   -1.0575   -1.5494 C   0  0  0  0  0  4           0  0  0
   -2.5240    0.1761   -1.5399 C   0  0  0  0  0  4           0  0  0
   -3.7226    0.3291   -2.2554 C   0  0  0  0  0  4           0  0  0
   -3.5333   -1.9236   -3.0932 C   0  0  0  0  0  4           0  0  0
    5.1267    1.8010    4.1029 C   0  0  0  0  0  4           0  0  0
    5.4329   -1.0033    4.4642 C   0  0  0  0  0  4           0  0  0
   -2.3513   -2.0850   -2.3695 C   0  0  0  0  0  4           0  0  0
    4.9091    1.2037    5.3490 C   0  0  0  0  0  4           0  0  0
    5.0585   -0.1734    5.5286 C   0  0  0  0  0  4           0  0  0
   -0.2131    0.9723    2.2645 C   0  0  0  0  0  4           0  0  0
    0.0000    0.0000    0.0000 C   0  0  2  0  0  4           0  0  0
   -0.8995    0.6472    3.5642 C   0  0  0  0  0  4           0  0  0
   -2.4910    2.3395    3.8910 C   0  0  0  0  0  4           0  0  0
    2.1287    0.0000   -1.4120 C   0  0  0  0  0  4           0  0  0
    4.2100   -1.1684   -0.9062 C   0  0  0  0  0  4           0  0  0
    4.0272    0.1734   -2.9153 C   0  0  0  0  0  4           0  0  0
   -0.5613   -1.2917   -0.7322 C   0  0  1  0  0  4           0  0  0
    6.4547   -0.1138   -0.2919 C   0  0  0  0  0  4           0  0  0
   -1.9878    1.3531   -0.7794 C   0  0  0  0  0  4           0  0  0
   -0.7008   -2.4821    0.2377 C   0  0  2  0  0  4           0  0  0
    1.5266    0.0000    0.0000 C   0  0  0  0  0  4           0  0  0
   -0.4690    1.2837   -0.7191 C   0  0  0  0  0  4           0  0  0
    5.7395   -1.2834   -0.9653 C   0  0  0  0  0  4           0  0  0
   -1.6517   -2.2084    1.4092 C   0  0  0  0  0  4           0  0  0
    0.6699   -2.9023    0.7790 C   0  0  0  0  0  4           0  0  0
  1  8  1  0     0  0
  2 21  2  0     0  0
  3 21  1  0     0  0
  3 22  1  0     0  0
  4 23  1  0     0  0
  4 24  1  0     0  0
  5  9  1  0     0  0
  5 10  1  0     0  0
  6  9  2  0     0  0
  6 11  1  0     0  0
  7 25  1  0     0  0
  7 26  1  0     0  0
  7 27  1  0     0  0
  8 14  2  0     0  0
  8 15  1  0     0  0
  9 29  1  0     0  0
 10 11  1  0     0  0
 10 16  2  0     0  0
 11 17  2  0     0  0
 12 13  2  0     0  0
 12 18  1  0     0  0
 12 28  1  0     0  0
 13 14  1  0     0  0
 13 30  1  0     0  0
 15 18  2  0     0  0
 16 19  1  0     0  0
 17 20  1  0     0  0
 19 20  2  0     0  0
 21 23  1  0     0  0
 22 28  1  0     0  0
 22 32  1  0     0  0
 22 33  1  0     0  0
 25 32  1  0     0  0
 26 34  1  0     0  0
 28 31  1  0     0  0
 29 34  1  0     0  0
 30 33  1  0     0  0
 31 35  1  0     0  0
 31 36  1  0     0  0
M  END
> <standard_type>
pIC50

> <# Confs.>
25

> <canonical_smiles>
O=C(O[C@@]1(CCN(CCCC2=NC3=CC=CC=C3N2)C)[C@@H](C(C)C)C4=C(C=C(F)C=C4)CC1)COC

> <standard_relation>
=

> <Publication_ID>
nan

> <predicted_activity_value>
nan

> <actual_activity_value>
-0.1553360374650618

> <Compound>
Mibefradil

> <standard_units>
uM

> hash
6864537718774107621

$$$$
31
XXILIB    08252103503D 0   0.00000     0.00000

 36 39  0     1  0            999 V2000
   -5.3542   -0.5600   -3.7081 F   0  0  0  0  0  1           0  0  0
    0.4914    1.9540    2.0719 O   0  0  0  0  0  2           0  0  0
   -0.5023    0.0000    1.3539 O   0  0  0  0  0  2           0  0  0
   -0.1325    1.1570    4.6405 O   0  0  0  0  0  2           0  0  0
    5.7798    1.1890    1.7369 N   0  0  0  0  0  3           0  0  0
    6.0227   -1.0005    2.0143 N   0  0  0  0  0  3           0  0  0
    3.5888   -0.0000   -1.5320 N   0  0  1  0  0  3           0  0  0
   -4.2155   -0.7201   -3.0196 C   0  0  0  0  0  4           0  0  0
    6.0932   -0.0114    1.1456 C   0  0  0  0  0  4           0  0  0
    5.4970    0.9543    3.0573 C   0  0  0  0  0  4           0  0  0
    5.6546   -0.4196    3.2053 C   0  0  0  0  0  4           0  0  0
   -1.8438   -1.0575   -1.5494 C   0  0  0  0  0  4           0  0  0
   -2.5240    0.1761   -1.5399 C   0  0  0  0  0  4           0  0  0
   -3.7226    0.3291   -2.2554 C   0  0  0  0  0  4           0  0  0
   -3.5333   -1.9236   -3.0932 C   0  0  0  0  0  4           0  0  0
    5.1267    1.8010    4.1029 C   0  0  0  0  0  4           0  0  0
    5.4329   -1.0033    4.4642 C   0  0  0  0  0  4           0  0  0
   -2.3513   -2.0850   -2.3695 C   0  0  0  0  0  4           0  0  0
    4.9091    1.2037    5.3490 C   0  0  0  0  0  4           0  0  0
    5.0585   -0.1734    5.5286 C   0  0  0  0  0  4           0  0  0
   -0.2131    0.9723    2.2645 C   0  0  0  0  0  4           0  0  0
    0.0000    0.0000    0.0000 C   0  0  2  0  0  4           0  0  0
   -0.8995    0.6472    3.5642 C   0  0  0  0  0  4           0  0  0
    0.8152    0.2046    5.1029 C   0  0  0  0  0  4           0  0  0
    2.1287    0.0000   -1.4120 C   0  0  0  0  0  4           0  0  0
    4.2100   -1.1684   -0.9062 C   0  0  0  0  0  4           0  0  0
    4.0272    0.1734   -2.9153 C   0  0  0  0  0  4           0  0  0
   -0.5613   -1.2917   -0.7322 C   0  0  1  0  0  4           0  0  0
    6.4547   -0.1138   -0.2919 C   0  0  0  0  0  4           0  0  0
   -1.9878    1.3531   -0.7794 C   0  0  0  0  0  4           0  0  0
   -0.7008   -2.4821    0.2377 C   0  0  2  0  0  4           0  0  0
    1.5266    0.0000    0.0000 C   0  0  0  0  0  4           0  0  0
   -0.4690    1.2837   -0.7191 C   0  0  0  0  0  4           0  0  0
    5.7395   -1.2834   -0.9653 C   0  0  0  0  0  4           0  0  0
   -1.6517   -2.2084    1.4092 C   0  0  0  0  0  4           0  0  0
    0.6699   -2.9023    0.7790 C   0  0  0  0  0  4           0  0  0
  1  8  1  0     0  0
  2 21  2  0     0  0
  3 21  1  0     0  0
  3 22  1  0     0  0
  4 23  1  0     0  0
  4 24  1  0     0  0
  5  9  1  0     0  0
  5 10  1  0     0  0
  6  9  2  0     0  0
  6 11  1  0     0  0
  7 25  1  0     0  0
  7 26  1  0     0  0
  7 27  1  0     0  0
  8 14  2  0     0  0
  8 15  1  0     0  0
  9 29  1  0     0  0
 10 11  1  0     0  0
 10 16  2  0     0  0
 11 17  2  0     0  0
 12 13  2  0     0  0
 12 18  1  0     0  0
 12 28  1  0     0  0
 13 14  1  0     0  0
 13 30  1  0     0  0
 15 18  2  0     0  0
 16 19  1  0     0  0
 17 20  1  0     0  0
 19 20  2  0     0  0
 21 23  1  0     0  0
 22 28  1  0     0  0
 22 32  1  0     0  0
 22 33  1  0     0  0
 25 32  1  0     0  0
 26 34  1  0     0  0
 28 31  1  0     0  0
 29 34  1  0     0  0
 30 33  1  0     0  0
 31 35  1  0     0  0
 31 36  1  0     0  0
M  END
> <standard_type>
pIC50

> <# Confs.>
25

> <canonical_smiles>
O=C(O[C@@]1(CCN(CCCC2=NC3=CC=CC=C3N2)C)[C@@H](C(C)C)C4=C(C=C(F)C=C4)CC1)COC

> <standard_relation>
=

> <Publication_ID>
nan

> <predicted_activity_value>
nan

> <actual_activity_value>
-0.1553360374650618

> <Compound>
Mibefradil

> <standard_units>
uM

> hash
6864537718774107621

$$$$
31
XXILIB    08252103503D 0   0.00000     0.00000

 36 39  0     1  0            999 V2000
   -5.3542   -0.5600   -3.7081 F   0  0  0  0  0  1           0  0  0
    0.4914    1.9540    2.0719 O   0  0  0  0  0  2           0  0  0
   -0.5023    0.0000    1.3539 O   0  0  0  0  0  2           0  0  0
   -0.6002    1.6516    4.5172 O   0  0  0  0  0  2           0  0  0
    3.0799    4.2973   -4.5694 N   0  0  0  0  0  3           0  0  0
    3.9636    5.2458   -2.7670 N   0  0  0  0  0  3           0  0  0
    3.5888    0.0000   -1.5320 N   0  0  1  0  0  3           0  0  0
   -4.2155   -0.7201   -3.0196 C   0  0  0  0  0  4           0  0  0
    3.7461    4.1010   -3.3835 C   0  0  0  0  0  4           0  0  0
    2.8629    5.6421   -4.7207 C   0  0  0  0  0  4           0  0  0
    3.4227    6.2123   -3.5823 C   0  0  0  0  0  4           0  0  0
   -1.8438   -1.0575   -1.5494 C   0  0  0  0  0  4           0  0  0
   -2.5240    0.1761   -1.5399 C   0  0  0  0  0  4           0  0  0
   -3.7226    0.3291   -2.2554 C   0  0  0  0  0  4           0  0  0
   -3.5333   -1.9236   -3.0932 C   0  0  0  0  0  4           0  0  0
    2.2422    6.3858   -5.7252 C   0  0  0  0  0  4           0  0  0
    3.3694    7.6068   -3.4172 C   0  0  0  0  0  4           0  0  0
   -2.3513   -2.0850   -2.3695 C   0  0  0  0  0  4           0  0  0
    2.1972    7.7723   -5.5447 C   0  0  0  0  0  4           0  0  0
    2.7497    8.3740   -4.4117 C   0  0  0  0  0  4           0  0  0
   -0.2131    0.9723    2.2645 C   0  0  0  0  0  4           0  0  0
    0.0000    0.0000    0.0000 C   0  0  2  0  0  4           0  0  0
   -0.8995    0.6472    3.5642 C   0  0  0  0  0  4           0  0  0
   -1.5511    2.7067    4.4792 C   0  0  0  0  0  4           0  0  0
    2.1287    0.0000   -1.4120 C   0  0  0  0  0  4           0  0  0
    4.2100    1.1684   -0.9062 C   0  0  0  0  0  4           0  0  0
    4.1799   -1.2496   -1.0576 C   0  0  0  0  0  4           0  0  0
   -0.5613   -1.2917   -0.7322 C   0  0  1  0  0  4           0  0  0
    4.1405    2.7481   -2.9131 C   0  0  0  0  0  4           0  0  0
   -1.9878    1.3531   -0.7794 C   0  0  0  0  0  4           0  0  0
   -0.7008   -2.4821    0.2377 C   0  0  2  0  0  4           0  0  0
    1.5266   -0.0000    0.0000 C   0  0  0  0  0  4           0  0  0
   -0.4690    1.2837   -0.7191 C   0  0  0  0  0  4           0  0  0
    3.8174    2.5557   -1.4327 C   0  0  0  0  0  4           0  0  0
   -1.6517   -2.2084    1.4092 C   0  0  0  0  0  4           0  0  0
    0.6699   -2.9023    0.7790 C   0  0  0  0  0  4           0  0  0
  1  8  1  0     0  0
  2 21  2  0     0  0
  3 21  1  0     0  0
  3 22  1  0     0  0
  4 23  1  0     0  0
  4 24  1  0     0  0
  5  9  1  0     0  0
  5 10  1  0     0  0
  6  9  2  0     0  0
  6 11  1  0     0  0
  7 25  1  0     0  0
  7 26  1  0     0  0
  7 27  1  0     0  0
  8 14  2  0     0  0
  8 15  1  0     0  0
  9 29  1  0     0  0
 10 11  1  0     0  0
 10 16  2  0     0  0
 11 17  2  0     0  0
 12 13  2  0     0  0
 12 18  1  0     0  0
 12 28  1  0     0  0
 13 14  1  0     0  0
 13 30  1  0     0  0
 15 18  2  0     0  0
 16 19  1  0     0  0
 17 20  1  0     0  0
 19 20  2  0     0  0
 21 23  1  0     0  0
 22 28  1  0     0  0
 22 32  1  0     0  0
 22 33  1  0     0  0
 25 32  1  0     0  0
 26 34  1  0     0  0
 28 31  1  0     0  0
 29 34  1  0     0  0
 30 33  1  0     0  0
 31 35  1  0     0  0
 31 36  1  0     0  0
M  END
> <standard_type>
pIC50

> <# Confs.>
25

> <canonical_smiles>
O=C(O[C@@]1(CCN(CCCC2=NC3=CC=CC=C3N2)C)[C@@H](C(C)C)C4=C(C=C(F)C=C4)CC1)COC

> <standard_relation>
=

> <Publication_ID>
nan

> <predicted_activity_value>
nan

> <actual_activity_value>
-0.1553360374650618

> <Compound>
Mibefradil

> <standard_units>
uM

> hash
6864537718774107621

$$$$
31
XXILIB    08252103503D 0   0.00000     0.00000

 36 39  0     1  0            999 V2000
   -5.3542   -0.5600   -3.7081 F   0  0  0  0  0  1           0  0  0
    0.4914    1.9540    2.0719 O   0  0  0  0  0  2           0  0  0
   -0.5023    0.0000    1.3539 O   0  0  0  0  0  2           0  0  0
   -0.6002    1.6516    4.5172 O   0  0  0  0  0  2           0  0  0
    8.7533    0.7831   -0.7161 N   0  0  0  0  0  3           0  0  0
    8.6282   -1.3552   -0.1319 N   0  0  0  0  0  3           0  0  0
    3.5888   -0.0000   -1.5320 N   0  0  1  0  0  3           0  0  0
   -4.2155   -0.7201   -3.0196 C   0  0  0  0  0  4           0  0  0
    7.9308   -0.2622   -0.3703 C   0  0  0  0  0  4           0  0  0
   10.0475    0.3320   -0.7014 C   0  0  0  0  0  4           0  0  0
    9.9429   -1.0050   -0.3329 C   0  0  0  0  0  4           0  0  0
   -1.8438   -1.0575   -1.5494 C   0  0  0  0  0  4           0  0  0
   -2.5240    0.1761   -1.5399 C   0  0  0  0  0  4           0  0  0
   -3.7226    0.3291   -2.2554 C   0  0  0  0  0  4           0  0  0
   -3.5333   -1.9236   -3.0932 C   0  0  0  0  0  4           0  0  0
   11.2640    0.9609   -0.9695 C   0  0  0  0  0  4           0  0  0
   11.1109   -1.7779   -0.2185 C   0  0  0  0  0  4           0  0  0
   -2.3513   -2.0850   -2.3695 C   0  0  0  0  0  4           0  0  0
   12.4168    0.1774   -0.8503 C   0  0  0  0  0  4           0  0  0
   12.3439   -1.1677   -0.4812 C   0  0  0  0  0  4           0  0  0
   -0.2131    0.9723    2.2645 C   0  0  0  0  0  4           0  0  0
    0.0000    0.0000    0.0000 C   0  0  2  0  0  4           0  0  0
   -0.8995    0.6472    3.5642 C   0  0  0  0  0  4           0  0  0
    0.5711    1.3363    5.2571 C   0  0  0  0  0  4           0  0  0
    2.1287    0.0000   -1.4120 C   0  0  0  0  0  4           0  0  0
    4.2100   -1.1684   -0.9062 C   0  0  0  0  0  4           0  0  0
    4.0272    0.1734   -2.9153 C   0  0  0  0  0  4           0  0  0
   -0.5613   -1.2917   -0.7322 C   0  0  1  0  0  4           0  0  0
    6.4547   -0.1138   -0.2919 C   0  0  0  0  0  4           0  0  0
   -1.9878    1.3531   -0.7794 C   0  0  0  0  0  4           0  0  0
   -0.7008   -2.4821    0.2377 C   0  0  2  0  0  4           0  0  0
    1.5266    0.0000    0.0000 C   0  0  0  0  0  4           0  0  0
   -0.4690    1.2837   -0.7191 C   0  0  0  0  0  4           0  0  0
    5.7395   -1.2834   -0.9653 C   0  0  0  0  0  4           0  0  0
   -1.6517   -2.2084    1.4092 C   0  0  0  0  0  4           0  0  0
    0.6699   -2.9023    0.7790 C   0  0  0  0  0  4           0  0  0
  1  8  1  0     0  0
  2 21  2  0     0  0
  3 21  1  0     0  0
  3 22  1  0     0  0
  4 23  1  0     0  0
  4 24  1  0     0  0
  5  9  1  0     0  0
  5 10  1  0     0  0
  6  9  2  0     0  0
  6 11  1  0     0  0
  7 25  1  0     0  0
  7 26  1  0     0  0
  7 27  1  0     0  0
  8 14  2  0     0  0
  8 15  1  0     0  0
  9 29  1  0     0  0
 10 11  1  0     0  0
 10 16  2  0     0  0
 11 17  2  0     0  0
 12 13  2  0     0  0
 12 18  1  0     0  0
 12 28  1  0     0  0
 13 14  1  0     0  0
 13 30  1  0     0  0
 15 18  2  0     0  0
 16 19  1  0     0  0
 17 20  1  0     0  0
 19 20  2  0     0  0
 21 23  1  0     0  0
 22 28  1  0     0  0
 22 32  1  0     0  0
 22 33  1  0     0  0
 25 32  1  0     0  0
 26 34  1  0     0  0
 28 31  1  0     0  0
 29 34  1  0     0  0
 30 33  1  0     0  0
 31 35  1  0     0  0
 31 36  1  0     0  0
M  END
> <standard_type>
pIC50

> <# Confs.>
25

> <canonical_smiles>
O=C(O[C@@]1(CCN(CCCC2=NC3=CC=CC=C3N2)C)[C@@H](C(C)C)C4=C(C=C(F)C=C4)CC1)COC

> <standard_relation>
=

> <Publication_ID>
nan

> <predicted_activity_value>
nan

> <actual_activity_value>
-0.1553360374650618

> <Compound>
Mibefradil

> <standard_units>
uM

> hash
6864537718774107621

$$$$
31
XXILIB    08252103503D 0   0.00000     0.00000

 36 39  0     1  0            999 V2000
   -5.3542   -0.5600   -3.7081 F   0  0  0  0  0  1           0  0  0
    0.4914    1.9540    2.0719 O   0  0  0  0  0  2           0  0  0
   -0.5023    0.0000    1.3539 O   0  0  0  0  0  2           0  0  0
   -0.6002    1.6516    4.5172 O   0  0  0  0  0  2           0  0  0
    4.6057    5.1722   -3.3323 N   0  0  0  0  0  3           0  0  0
    2.5813    4.4519   -3.8914 N   0  0  0  0  0  3           0  0  0
    3.5888    0.0000   -1.5320 N   0  0  1  0  0  3           0  0  0
   -4.2155   -0.7201   -3.0196 C   0  0  0  0  0  4           0  0  0
    3.7461    4.1010   -3.3835 C   0  0  0  0  0  4           0  0  0
    3.9525    6.2689   -3.8317 C   0  0  0  0  0  4           0  0  0
    2.6914    5.7932   -4.1746 C   0  0  0  0  0  4           0  0  0
   -1.8438   -1.0575   -1.5494 C   0  0  0  0  0  4           0  0  0
   -2.5240    0.1761   -1.5399 C   0  0  0  0  0  4           0  0  0
   -3.7226    0.3291   -2.2554 C   0  0  0  0  0  4           0  0  0
   -3.5333   -1.9236   -3.0932 C   0  0  0  0  0  4           0  0  0
    4.3460    7.5960   -4.0085 C   0  0  0  0  0  4           0  0  0
    1.7524    6.6790   -4.7297 C   0  0  0  0  0  4           0  0  0
   -2.3513   -2.0850   -2.3695 C   0  0  0  0  0  4           0  0  0
    3.3995    8.4641   -4.5629 C   0  0  0  0  0  4           0  0  0
    2.1253    8.0158   -4.9183 C   0  0  0  0  0  4           0  0  0
   -0.2131    0.9723    2.2645 C   0  0  0  0  0  4           0  0  0
    0.0000    0.0000    0.0000 C   0  0  2  0  0  4           0  0  0
   -0.8995    0.6472    3.5642 C   0  0  0  0  0  4           0  0  0
   -1.5511    2.7067    4.4792 C   0  0  0  0  0  4           0  0  0
    2.1287    0.0000   -1.4120 C   0  0  0  0  0  4           0  0  0
    4.2100    1.1684   -0.9062 C   0  0  0  0  0  4           0  0  0
    4.1799   -1.2496   -1.0576 C   0  0  0  0  0  4           0  0  0
   -0.5613   -1.2917   -0.7322 C   0  0  1  0  0  4           0  0  0
    4.1405    2.7481   -2.9131 C   0  0  0  0  0  4           0  0  0
   -1.9878    1.3531   -0.7794 C   0  0  0  0  0  4           0  0  0
   -0.7008   -2.4821    0.2377 C   0  0  2  0  0  4           0  0  0
    1.5266   -0.0000    0.0000 C   0  0  0  0  0  4           0  0  0
   -0.4690    1.2837   -0.7191 C   0  0  0  0  0  4           0  0  0
    3.8174    2.5557   -1.4327 C   0  0  0  0  0  4           0  0  0
   -1.6517   -2.2084    1.4092 C   0  0  0  0  0  4           0  0  0
    0.6699   -2.9023    0.7790 C   0  0  0  0  0  4           0  0  0
  1  8  1  0     0  0
  2 21  2  0     0  0
  3 21  1  0     0  0
  3 22  1  0     0  0
  4 23  1  0     0  0
  4 24  1  0     0  0
  5  9  1  0     0  0
  5 10  1  0     0  0
  6  9  2  0     0  0
  6 11  1  0     0  0
  7 25  1  0     0  0
  7 26  1  0     0  0
  7 27  1  0     0  0
  8 14  2  0     0  0
  8 15  1  0     0  0
  9 29  1  0     0  0
 10 11  1  0     0  0
 10 16  2  0     0  0
 11 17  2  0     0  0
 12 13  2  0     0  0
 12 18  1  0     0  0
 12 28  1  0     0  0
 13 14  1  0     0  0
 13 30  1  0     0  0
 15 18  2  0     0  0
 16 19  1  0     0  0
 17 20  1  0     0  0
 19 20  2  0     0  0
 21 23  1  0     0  0
 22 28  1  0     0  0
 22 32  1  0     0  0
 22 33  1  0     0  0
 25 32  1  0     0  0
 26 34  1  0     0  0
 28 31  1  0     0  0
 29 34  1  0     0  0
 30 33  1  0     0  0
 31 35  1  0     0  0
 31 36  1  0     0  0
M  END
> <standard_type>
pIC50

> <# Confs.>
25

> <canonical_smiles>
O=C(O[C@@]1(CCN(CCCC2=NC3=CC=CC=C3N2)C)[C@@H](C(C)C)C4=C(C=C(F)C=C4)CC1)COC

> <standard_relation>
=

> <Publication_ID>
nan

> <predicted_activity_value>
nan

> <actual_activity_value>
-0.1553360374650618

> <Compound>
Mibefradil

> <standard_units>
uM

> hash
6864537718774107621

$$$$
31
XXILIB    08252103503D 0   0.00000     0.00000

 36 39  0     1  0            999 V2000
   -5.3542   -0.5600   -3.7081 F   0  0  0  0  0  1           0  0  0
    0.4914    1.9540    2.0719 O   0  0  0  0  0  2           0  0  0
   -0.5023    0.0000    1.3539 O   0  0  0  0  0  2           0  0  0
   -0.6002    1.6516    4.5172 O   0  0  0  0  0  2           0  0  0
    4.5699    4.8706   -4.1697 N   0  0  0  0  0  3           0  0  0
    2.6126    4.7252   -3.1316 N   0  0  0  0  0  3           0  0  0
    3.5888    0.0000   -1.5320 N   0  0  1  0  0  3           0  0  0
   -4.2155   -0.7201   -3.0196 C   0  0  0  0  0  4           0  0  0
    3.7461    4.1010   -3.3835 C   0  0  0  0  0  4           0  0  0
    3.9286    6.0534   -4.4314 C   0  0  0  0  0  4           0  0  0
    2.7088    5.9378   -3.7735 C   0  0  0  0  0  4           0  0  0
   -1.8438   -1.0575   -1.5494 C   0  0  0  0  0  4           0  0  0
   -2.5240    0.1761   -1.5399 C   0  0  0  0  0  4           0  0  0
   -3.7226    0.3291   -2.2554 C   0  0  0  0  0  4           0  0  0
   -3.5333   -1.9236   -3.0932 C   0  0  0  0  0  4           0  0  0
    4.2999    7.1799   -5.1665 C   0  0  0  0  0  4           0  0  0
    1.7899    6.9986   -3.8418 C   0  0  0  0  0  4           0  0  0
   -2.3513   -2.0850   -2.3695 C   0  0  0  0  0  4           0  0  0
    3.3734    8.2263   -5.2250 C   0  0  0  0  0  4           0  0  0
    2.1399    8.1392   -4.5755 C   0  0  0  0  0  4           0  0  0
   -0.2131    0.9723    2.2645 C   0  0  0  0  0  4           0  0  0
    0.0000    0.0000    0.0000 C   0  0  2  0  0  4           0  0  0
   -0.8995    0.6472    3.5642 C   0  0  0  0  0  4           0  0  0
    0.5711    1.3363    5.2571 C   0  0  0  0  0  4           0  0  0
    2.1287    0.0000   -1.4120 C   0  0  0  0  0  4           0  0  0
    4.2100    1.1684   -0.9062 C   0  0  0  0  0  4           0  0  0
    4.1799   -1.2496   -1.0576 C   0  0  0  0  0  4           0  0  0
   -0.5613   -1.2917   -0.7322 C   0  0  1  0  0  4           0  0  0
    4.1405    2.7481   -2.9131 C   0  0  0  0  0  4           0  0  0
   -1.9878    1.3531   -0.7794 C   0  0  0  0  0  4           0  0  0
   -0.7008   -2.4821    0.2377 C   0  0  2  0  0  4           0  0  0
    1.5266   -0.0000    0.0000 C   0  0  0  0  0  4           0  0  0
   -0.4690    1.2837   -0.7191 C   0  0  0  0  0  4           0  0  0
    3.8174    2.5557   -1.4327 C   0  0  0  0  0  4           0  0  0
   -1.6517   -2.2084    1.4092 C   0  0  0  0  0  4           0  0  0
    0.6699   -2.9023    0.7790 C   0  0  0  0  0  4           0  0  0
  1  8  1  0     0  0
  2 21  2  0     0  0
  3 21  1  0     0  0
  3 22  1  0     0  0
  4 23  1  0     0  0
  4 24  1  0     0  0
  5  9  1  0     0  0
  5 10  1  0     0  0
  6  9  2  0     0  0
  6 11  1  0     0  0
  7 25  1  0     0  0
  7 26  1  0     0  0
  7 27  1  0     0  0
  8 14  2  0     0  0
  8 15  1  0     0  0
  9 29  1  0     0  0
 10 11  1  0     0  0
 10 16  2  0     0  0
 11 17  2  0     0  0
 12 13  2  0     0  0
 12 18  1  0     0  0
 12 28  1  0     0  0
 13 14  1  0     0  0
 13 30  1  0     0  0
 15 18  2  0     0  0
 16 19  1  0     0  0
 17 20  1  0     0  0
 19 20  2  0     0  0
 21 23  1  0     0  0
 22 28  1  0     0  0
 22 32  1  0     0  0
 22 33  1  0     0  0
 25 32  1  0     0  0
 26 34  1  0     0  0
 28 31  1  0     0  0
 29 34  1  0     0  0
 30 33  1  0     0  0
 31 35  1  0     0  0
 31 36  1  0     0  0
M  END
> <standard_type>
pIC50

> <# Confs.>
25

> <canonical_smiles>
O=C(O[C@@]1(CCN(CCCC2=NC3=CC=CC=C3N2)C)[C@@H](C(C)C)C4=C(C=C(F)C=C4)CC1)COC

> <standard_relation>
=

> <Publication_ID>
nan

> <predicted_activity_value>
nan

> <actual_activity_value>
-0.1553360374650618

> <Compound>
Mibefradil

> <standard_units>
uM

> hash
6864537718774107621

$$$$
31
XXILIB    08252103503D 0   0.00000     0.00000

 36 39  0     1  0            999 V2000
   -5.3542   -0.5600   -3.7081 F   0  0  0  0  0  1           0  0  0
    0.4914    1.9540    2.0719 O   0  0  0  0  0  2           0  0  0
   -0.5023    0.0000    1.3539 O   0  0  0  0  0  2           0  0  0
   -0.6002    1.6516    4.5172 O   0  0  0  0  0  2           0  0  0
    2.4898   -4.2999   -4.0038 N   0  0  0  0  0  3           0  0  0
    4.3404   -4.1213   -5.2172 N   0  0  0  0  0  3           0  0  0
    3.5888   -0.0000   -1.5320 N   0  0  1  0  0  3           0  0  0
   -4.2155   -0.7201   -3.0196 C   0  0  0  0  0  4           0  0  0
    3.6804   -3.6375   -4.1838 C   0  0  0  0  0  4           0  0  0
    2.3851   -5.2627   -4.9736 C   0  0  0  0  0  4           0  0  0
    3.5519   -5.1304   -5.7188 C   0  0  0  0  0  4           0  0  0
   -1.8438   -1.0575   -1.5494 C   0  0  0  0  0  4           0  0  0
   -2.5240    0.1761   -1.5399 C   0  0  0  0  0  4           0  0  0
   -3.7226    0.3291   -2.2554 C   0  0  0  0  0  4           0  0  0
   -3.5333   -1.9236   -3.0932 C   0  0  0  0  0  4           0  0  0
    1.3985   -6.2086   -5.2548 C   0  0  0  0  0  4           0  0  0
    3.7654   -5.9830   -6.8152 C   0  0  0  0  0  4           0  0  0
   -2.3513   -2.0850   -2.3695 C   0  0  0  0  0  4           0  0  0
    1.6264   -7.0487   -6.3499 C   0  0  0  0  0  4           0  0  0
    2.7880   -6.9393   -7.1179 C   0  0  0  0  0  4           0  0  0
   -0.2131    0.9723    2.2645 C   0  0  0  0  0  4           0  0  0
    0.0000    0.0000    0.0000 C   0  0  2  0  0  4           0  0  0
   -0.8995    0.6472    3.5642 C   0  0  0  0  0  4           0  0  0
   -1.5511    2.7067    4.4792 C   0  0  0  0  0  4           0  0  0
    2.1287   -0.0000   -1.4120 C   0  0  0  0  0  4           0  0  0
    4.0442   -0.0000   -2.9231 C   0  0  0  0  0  4           0  0  0
    4.2045    1.0762   -0.7582 C   0  0  0  0  0  4           0  0  0
   -0.5613   -1.2917   -0.7322 C   0  0  1  0  0  4           0  0  0
    4.1092   -2.5270   -3.2948 C   0  0  0  0  0  4           0  0  0
   -1.9878    1.3531   -0.7794 C   0  0  0  0  0  4           0  0  0
   -0.7008   -2.4821    0.2377 C   0  0  2  0  0  4           0  0  0
    1.5266   -0.0000   -0.0000 C   0  0  0  0  0  4           0  0  0
   -0.4690    1.2837   -0.7191 C   0  0  0  0  0  4           0  0  0
    3.6216   -1.1760   -3.8145 C   0  0  0  0  0  4           0  0  0
   -1.6517   -2.2084    1.4092 C   0  0  0  0  0  4           0  0  0
    0.6699   -2.9023    0.7790 C   0  0  0  0  0  4           0  0  0
  1  8  1  0     0  0
  2 21  2  0     0  0
  3 21  1  0     0  0
  3 22  1  0     0  0
  4 23  1  0     0  0
  4 24  1  0     0  0
  5  9  1  0     0  0
  5 10  1  0     0  0
  6  9  2  0     0  0
  6 11  1  0     0  0
  7 25  1  0     0  0
  7 26  1  0     0  0
  7 27  1  0     0  0
  8 14  2  0     0  0
  8 15  1  0     0  0
  9 29  1  0     0  0
 10 11  1  0     0  0
 10 16  2  0     0  0
 11 17  2  0     0  0
 12 13  2  0     0  0
 12 18  1  0     0  0
 12 28  1  0     0  0
 13 14  1  0     0  0
 13 30  1  0     0  0
 15 18  2  0     0  0
 16 19  1  0     0  0
 17 20  1  0     0  0
 19 20  2  0     0  0
 21 23  1  0     0  0
 22 28  1  0     0  0
 22 32  1  0     0  0
 22 33  1  0     0  0
 25 32  1  0     0  0
 26 34  1  0     0  0
 28 31  1  0     0  0
 29 34  1  0     0  0
 30 33  1  0     0  0
 31 35  1  0     0  0
 31 36  1  0     0  0
M  END
> <standard_type>
pIC50

> <# Confs.>
25

> <canonical_smiles>
O=C(O[C@@]1(CCN(CCCC2=NC3=CC=CC=C3N2)C)[C@@H](C(C)C)C4=C(C=C(F)C=C4)CC1)COC

> <standard_relation>
=

> <Publication_ID>
nan

> <predicted_activity_value>
nan

> <actual_activity_value>
-0.1553360374650618

> <Compound>
Mibefradil

> <standard_units>
uM

> hash
6864537718774107621

$$$$
31
XXILIB    08252103503D 0   0.00000     0.00000

 36 39  0     1  0            999 V2000
   -5.3542   -0.5600   -3.7081 F   0  0  0  0  0  1           0  0  0
    0.4914    1.9540    2.0719 O   0  0  0  0  0  2           0  0  0
   -0.5023    0.0000    1.3539 O   0  0  0  0  0  2           0  0  0
   -0.6002    1.6516    4.5172 O   0  0  0  0  0  2           0  0  0
    8.6140   -0.5794   -1.9987 N   0  0  0  0  0  3           0  0  0
    8.3491   -1.6890   -3.9034 N   0  0  0  0  0  3           0  0  0
    3.5888   -0.0000   -1.5320 N   0  0  1  0  0  3           0  0  0
   -4.2155   -0.7201   -3.0196 C   0  0  0  0  0  4           0  0  0
    7.7263   -1.1796   -2.8592 C   0  0  0  0  0  4           0  0  0
    9.8733   -0.7093   -2.5242 C   0  0  0  0  0  4           0  0  0
    9.6814   -1.4062   -3.7124 C   0  0  0  0  0  4           0  0  0
   -1.8438   -1.0575   -1.5494 C   0  0  0  0  0  4           0  0  0
   -2.5240    0.1761   -1.5399 C   0  0  0  0  0  4           0  0  0
   -3.7226    0.3291   -2.2554 C   0  0  0  0  0  4           0  0  0
   -3.5333   -1.9236   -3.0932 C   0  0  0  0  0  4           0  0  0
   11.1260   -0.2904   -2.0743 C   0  0  0  0  0  4           0  0  0
   10.7938   -1.7143   -4.5136 C   0  0  0  0  0  4           0  0  0
   -2.3513   -2.0850   -2.3695 C   0  0  0  0  0  4           0  0  0
   12.2227   -0.6060   -2.8834 C   0  0  0  0  0  4           0  0  0
   12.0619   -1.3056   -4.0816 C   0  0  0  0  0  4           0  0  0
   -0.2131    0.9723    2.2645 C   0  0  0  0  0  4           0  0  0
    0.0000    0.0000    0.0000 C   0  0  2  0  0  4           0  0  0
   -0.8995    0.6472    3.5642 C   0  0  0  0  0  4           0  0  0
    0.5711    1.3363    5.2571 C   0  0  0  0  0  4           0  0  0
    2.1287    0.0000   -1.4120 C   0  0  0  0  0  4           0  0  0
    4.0442    0.0000   -2.9231 C   0  0  0  0  0  4           0  0  0
    4.2045    1.0762   -0.7582 C   0  0  0  0  0  4           0  0  0
   -0.5613   -1.2917   -0.7322 C   0  0  1  0  0  4           0  0  0
    6.2659   -1.2168   -2.5887 C   0  0  0  0  0  4           0  0  0
   -1.9878    1.3531   -0.7794 C   0  0  0  0  0  4           0  0  0
   -0.7008   -2.4821    0.2377 C   0  0  2  0  0  4           0  0  0
    1.5266   -0.0000   -0.0000 C   0  0  0  0  0  4           0  0  0
   -0.4690    1.2837   -0.7191 C   0  0  0  0  0  4           0  0  0
    5.5574   -0.0000   -3.1807 C   0  0  0  0  0  4           0  0  0
   -1.6517   -2.2084    1.4092 C   0  0  0  0  0  4           0  0  0
    0.6699   -2.9023    0.7790 C   0  0  0  0  0  4           0  0  0
  1  8  1  0     0  0
  2 21  2  0     0  0
  3 21  1  0     0  0
  3 22  1  0     0  0
  4 23  1  0     0  0
  4 24  1  0     0  0
  5  9  1  0     0  0
  5 10  1  0     0  0
  6  9  2  0     0  0
  6 11  1  0     0  0
  7 25  1  0     0  0
  7 26  1  0     0  0
  7 27  1  0     0  0
  8 14  2  0     0  0
  8 15  1  0     0  0
  9 29  1  0     0  0
 10 11  1  0     0  0
 10 16  2  0     0  0
 11 17  2  0     0  0
 12 13  2  0     0  0
 12 18  1  0     0  0
 12 28  1  0     0  0
 13 14  1  0     0  0
 13 30  1  0     0  0
 15 18  2  0     0  0
 16 19  1  0     0  0
 17 20  1  0     0  0
 19 20  2  0     0  0
 21 23  1  0     0  0
 22 28  1  0     0  0
 22 32  1  0     0  0
 22 33  1  0     0  0
 25 32  1  0     0  0
 26 34  1  0     0  0
 28 31  1  0     0  0
 29 34  1  0     0  0
 30 33  1  0     0  0
 31 35  1  0     0  0
 31 36  1  0     0  0
M  END
> <standard_type>
pIC50

> <# Confs.>
25

> <canonical_smiles>
O=C(O[C@@]1(CCN(CCCC2=NC3=CC=CC=C3N2)C)[C@@H](C(C)C)C4=C(C=C(F)C=C4)CC1)COC

> <standard_relation>
=

> <Publication_ID>
nan

> <predicted_activity_value>
nan

> <actual_activity_value>
-0.1553360374650618

> <Compound>
Mibefradil

> <standard_units>
uM

> hash
6864537718774107621

$$$$
31
XXILIB    08252103503D 0   0.00000     0.00000

 36 39  0     1  0            999 V2000
   -5.3542   -0.5600   -3.7081 F   0  0  0  0  0  1           0  0  0
    0.4914    1.9540    2.0719 O   0  0  0  0  0  2           0  0  0
   -0.5023    0.0000    1.3539 O   0  0  0  0  0  2           0  0  0
   -2.2995    0.5930    3.3550 O   0  0  0  0  0  2           0  0  0
    2.4985    4.3614   -3.8977 N   0  0  0  0  0  3           0  0  0
    4.4918    5.1881   -3.3757 N   0  0  0  0  0  3           0  0  0
    3.5888    0.0000   -1.5320 N   0  0  1  0  0  3           0  0  0
   -4.2155   -0.7201   -3.0196 C   0  0  0  0  0  4           0  0  0
    3.7461    4.1010   -3.3835 C   0  0  0  0  0  4           0  0  0
    2.4454    5.6873   -4.2407 C   0  0  0  0  0  4           0  0  0
    3.7011    6.1815   -3.9043 C   0  0  0  0  0  4           0  0  0
   -1.8438   -1.0575   -1.5494 C   0  0  0  0  0  4           0  0  0
   -2.5240    0.1761   -1.5399 C   0  0  0  0  0  4           0  0  0
   -3.7226    0.3291   -2.2554 C   0  0  0  0  0  4           0  0  0
   -3.5333   -1.9236   -3.0932 C   0  0  0  0  0  4           0  0  0
    1.4360    6.4729   -4.7985 C   0  0  0  0  0  4           0  0  0
    3.9862    7.5390   -4.1291 C   0  0  0  0  0  4           0  0  0
   -2.3513   -2.0850   -2.3695 C   0  0  0  0  0  4           0  0  0
    1.7361    7.8220   -5.0150 C   0  0  0  0  0  4           0  0  0
    2.9878    8.3478   -4.6866 C   0  0  0  0  0  4           0  0  0
   -0.2131    0.9723    2.2645 C   0  0  0  0  0  4           0  0  0
    0.0000    0.0000    0.0000 C   0  0  2  0  0  4           0  0  0
   -0.8995    0.6472    3.5642 C   0  0  0  0  0  4           0  0  0
   -2.9950    0.2883    4.5560 C   0  0  0  0  0  4           0  0  0
    2.1287    0.0000   -1.4120 C   0  0  0  0  0  4           0  0  0
    4.2100    1.1684   -0.9062 C   0  0  0  0  0  4           0  0  0
    4.1799   -1.2496   -1.0576 C   0  0  0  0  0  4           0  0  0
   -0.5613   -1.2917   -0.7322 C   0  0  1  0  0  4           0  0  0
    4.1405    2.7481   -2.9131 C   0  0  0  0  0  4           0  0  0
   -1.9878    1.3531   -0.7794 C   0  0  0  0  0  4           0  0  0
   -0.7008   -2.4821    0.2377 C   0  0  2  0  0  4           0  0  0
    1.5266   -0.0000    0.0000 C   0  0  0  0  0  4           0  0  0
   -0.4690    1.2837   -0.7191 C   0  0  0  0  0  4           0  0  0
    3.8174    2.5557   -1.4327 C   0  0  0  0  0  4           0  0  0
   -1.6517   -2.2084    1.4092 C   0  0  0  0  0  4           0  0  0
    0.6699   -2.9023    0.7790 C   0  0  0  0  0  4           0  0  0
  1  8  1  0     0  0
  2 21  2  0     0  0
  3 21  1  0     0  0
  3 22  1  0     0  0
  4 23  1  0     0  0
  4 24  1  0     0  0
  5  9  1  0     0  0
  5 10  1  0     0  0
  6  9  2  0     0  0
  6 11  1  0     0  0
  7 25  1  0     0  0
  7 26  1  0     0  0
  7 27  1  0     0  0
  8 14  2  0     0  0
  8 15  1  0     0  0
  9 29  1  0     0  0
 10 11  1  0     0  0
 10 16  2  0     0  0
 11 17  2  0     0  0
 12 13  2  0     0  0
 12 18  1  0     0  0
 12 28  1  0     0  0
 13 14  1  0     0  0
 13 30  1  0     0  0
 15 18  2  0     0  0
 16 19  1  0     0  0
 17 20  1  0     0  0
 19 20  2  0     0  0
 21 23  1  0     0  0
 22 28  1  0     0  0
 22 32  1  0     0  0
 22 33  1  0     0  0
 25 32  1  0     0  0
 26 34  1  0     0  0
 28 31  1  0     0  0
 29 34  1  0     0  0
 30 33  1  0     0  0
 31 35  1  0     0  0
 31 36  1  0     0  0
M  END
> <standard_type>
pIC50

> <# Confs.>
25

> <canonical_smiles>
O=C(O[C@@]1(CCN(CCCC2=NC3=CC=CC=C3N2)C)[C@@H](C(C)C)C4=C(C=C(F)C=C4)CC1)COC

> <standard_relation>
=

> <Publication_ID>
nan

> <predicted_activity_value>
nan

> <actual_activity_value>
-0.1553360374650618

> <Compound>
Mibefradil

> <standard_units>
uM

> hash
6864537718774107621

$$$$
31
XXILIB    08252103503D 0   0.00000     0.00000

 36 39  0     1  0            999 V2000
   -5.3542   -0.5600   -3.7081 F   0  0  0  0  0  1           0  0  0
    0.4914    1.9540    2.0719 O   0  0  0  0  0  2           0  0  0
   -0.5023    0.0000    1.3539 O   0  0  0  0  0  2           0  0  0
   -0.4409   -0.6072    4.0363 O   0  0  0  0  0  2           0  0  0
    6.0705    1.8545   -4.2341 N   0  0  0  0  0  3           0  0  0
    6.5838    3.1081   -2.4750 N   0  0  0  0  0  3           0  0  0
    3.5888    0.0000   -1.5320 N   0  0  1  0  0  3           0  0  0
   -4.2155   -0.7201   -3.0196 C   0  0  0  0  0  4           0  0  0
    5.5943    2.5915   -3.1763 C   0  0  0  0  0  4           0  0  0
    7.4401    1.8998   -4.2047 C   0  0  0  0  0  4           0  0  0
    7.7359    2.6889   -3.0984 C   0  0  0  0  0  4           0  0  0
   -1.8438   -1.0575   -1.5494 C   0  0  0  0  0  4           0  0  0
   -2.5240    0.1761   -1.5399 C   0  0  0  0  0  4           0  0  0
   -3.7226    0.3291   -2.2554 C   0  0  0  0  0  4           0  0  0
   -3.5333   -1.9236   -3.0932 C   0  0  0  0  0  4           0  0  0
    8.4158    1.3358   -5.0276 C   0  0  0  0  0  4           0  0  0
    9.0801    2.9434   -2.7776 C   0  0  0  0  0  4           0  0  0
   -2.3513   -2.0850   -2.3695 C   0  0  0  0  0  4           0  0  0
    9.7487    1.5996   -4.6946 C   0  0  0  0  0  4           0  0  0
   10.0771    2.3892   -3.5902 C   0  0  0  0  0  4           0  0  0
   -0.2131    0.9723    2.2645 C   0  0  0  0  0  4           0  0  0
    0.0000    0.0000    0.0000 C   0  0  2  0  0  4           0  0  0
   -0.8995    0.6472    3.5642 C   0  0  0  0  0  4           0  0  0
   -1.0610   -0.9606    5.2649 C   0  0  0  0  0  4           0  0  0
    2.1287    0.0000   -1.4120 C   0  0  0  0  0  4           0  0  0
    4.2100    1.1684   -0.9062 C   0  0  0  0  0  4           0  0  0
    4.1799   -1.2496   -1.0576 C   0  0  0  0  0  4           0  0  0
   -0.5613   -1.2917   -0.7322 C   0  0  1  0  0  4           0  0  0
    4.1405    2.7481   -2.9131 C   0  0  0  0  0  4           0  0  0
   -1.9878    1.3531   -0.7794 C   0  0  0  0  0  4           0  0  0
   -0.7008   -2.4821    0.2377 C   0  0  2  0  0  4           0  0  0
    1.5266   -0.0000    0.0000 C   0  0  0  0  0  4           0  0  0
   -0.4690    1.2837   -0.7191 C   0  0  0  0  0  4           0  0  0
    3.8174    2.5557   -1.4327 C   0  0  0  0  0  4           0  0  0
   -1.6517   -2.2084    1.4092 C   0  0  0  0  0  4           0  0  0
    0.6699   -2.9023    0.7790 C   0  0  0  0  0  4           0  0  0
  1  8  1  0     0  0
  2 21  2  0     0  0
  3 21  1  0     0  0
  3 22  1  0     0  0
  4 23  1  0     0  0
  4 24  1  0     0  0
  5  9  1  0     0  0
  5 10  1  0     0  0
  6  9  2  0     0  0
  6 11  1  0     0  0
  7 25  1  0     0  0
  7 26  1  0     0  0
  7 27  1  0     0  0
  8 14  2  0     0  0
  8 15  1  0     0  0
  9 29  1  0     0  0
 10 11  1  0     0  0
 10 16  2  0     0  0
 11 17  2  0     0  0
 12 13  2  0     0  0
 12 18  1  0     0  0
 12 28  1  0     0  0
 13 14  1  0     0  0
 13 30  1  0     0  0
 15 18  2  0     0  0
 16 19  1  0     0  0
 17 20  1  0     0  0
 19 20  2  0     0  0
 21 23  1  0     0  0
 22 28  1  0     0  0
 22 32  1  0     0  0
 22 33  1  0     0  0
 25 32  1  0     0  0
 26 34  1  0     0  0
 28 31  1  0     0  0
 29 34  1  0     0  0
 30 33  1  0     0  0
 31 35  1  0     0  0
 31 36  1  0     0  0
M  END
> <standard_type>
pIC50

> <# Confs.>
25

> <canonical_smiles>
O=C(O[C@@]1(CCN(CCCC2=NC3=CC=CC=C3N2)C)[C@@H](C(C)C)C4=C(C=C(F)C=C4)CC1)COC

> <standard_relation>
=

> <Publication_ID>
nan

> <predicted_activity_value>
nan

> <actual_activity_value>
-0.1553360374650618

> <Compound>
Mibefradil

> <standard_units>
uM

> hash
6864537718774107621

$$$$
38
XXILIB    08252103503D 0   0.00000     0.00000

 22 25  0     1  0            999 V2000
   -2.7523   -0.4594    0.2987 O   0  0  0  0  0  2           0  0  0
    1.4481    0.0000   -0.0000 N   0  0  0  0  0  3           0  0  0
   -3.1821    1.4301    4.4379 N   0  0  0  0  0  3           0  0  0
    3.5458   -0.7198    0.0152 N   0  0  0  0  0  3           0  0  0
    2.2807   -1.0962   -0.0000 C   0  0  0  0  0  4           0  0  0
   -4.4516    1.1676    3.9541 C   0  0  0  0  0  4           0  0  0
   -2.2470    1.0652    3.5054 C   0  0  0  0  0  4           0  0  0
    2.2307    1.1212    0.0149 C   0  0  0  0  0  4           0  0  0
    3.5210    0.6505    0.0240 C   0  0  0  0  0  4           0  0  0
   -4.3016    0.5797    2.6907 C   0  0  0  0  0  4           0  0  0
   -2.9044    0.5106    2.4267 C   0  0  0  0  0  4           0  0  0
   -5.7170    1.3961    4.5198 C   0  0  0  0  0  4           0  0  0
   -5.4597    0.2028    1.9769 C   0  0  0  0  0  4           0  0  0
   -6.8461    1.0168    3.7896 C   0  0  0  0  0  4           0  0  0
   -6.7215    0.4277    2.5363 C   0  0  0  0  0  4           0  0  0
   -2.1702   -0.0000    1.2777 C   0  0  0  0  0  4           0  0  0
    0.0000   -0.0000    0.0000 C   0  0  0  0  0  4           0  0  0
   -2.8994    2.0127    5.7318 C   0  0  0  0  0  4           0  0  0
   -0.7725    1.2311    3.6310 C   0  0  0  0  0  4           0  0  0
    1.7978   -2.4984   -0.0165 C   0  0  0  0  0  4           0  0  0
   -0.6313   -0.0000    1.3905 C   0  0  1  0  0  4           0  0  0
   -0.1395    1.2022    2.2315 C   0  0  0  0  0  4           0  0  0
  1 16  2  0     0  0
  2  5  1  0     0  0
  2  8  1  0     0  0
  2 17  1  0     0  0
  3  6  1  0     0  0
  3  7  1  0     0  0
  3 18  1  0     0  0
  4  5  2  0     0  0
  4  9  1  0     0  0
  5 20  1  0     0  0
  6 10  1  0     0  0
  6 12  2  0     0  0
  7 11  2  0     0  0
  7 19  1  0     0  0
  8  9  2  0     0  0
 10 11  1  0     0  0
 10 13  2  0     0  0
 11 16  1  0     0  0
 12 14  1  0     0  0
 13 15  1  0     0  0
 14 15  2  0     0  0
 16 21  1  0     0  0
 17 21  1  0     0  0
 19 22  1  0     0  0
 21 22  1  0     0  0
M  END
> <standard_type>
pIC50

> <# Confs.>
21

> <canonical_smiles>
CC1=NC=CN1CC2CCC3=C(C4=CC=CC=C4N3C)C2=O

> <standard_relation>
=

> <Publication_ID>
nan

> <predicted_activity_value>
nan

> <actual_activity_value>
0.09151498112135022

> <Compound>
Ondansetron

> <standard_units>
uM

> hash
15585365675579430521

$$$$
38
XXILIB    08252103503D 0   0.00000     0.00000

 22 25  0     1  0            999 V2000
   -2.7847    0.4544    0.3622 O   0  0  0  0  0  2           0  0  0
    1.4481   -0.0000    0.0000 N   0  0  0  0  0  3           0  0  0
   -3.0800   -1.3873    4.5375 N   0  0  0  0  0  3           0  0  0
    3.5458    0.7198   -0.0152 N   0  0  0  0  0  3           0  0  0
    2.2807    1.0962    0.0000 C   0  0  0  0  0  4           0  0  0
   -4.3657   -1.1634    4.0783 C   0  0  0  0  0  4           0  0  0
   -2.1745   -1.0161    3.5783 C   0  0  0  0  0  4           0  0  0
    2.2307   -1.1212   -0.0149 C   0  0  0  0  0  4           0  0  0
    3.5210   -0.6505   -0.0240 C   0  0  0  0  0  4           0  0  0
   -4.2580   -0.5963    2.8010 C   0  0  0  0  0  4           0  0  0
   -2.8691   -0.5022    2.5023 C   0  0  0  0  0  4           0  0  0
   -5.6133   -1.4104    4.6756 C   0  0  0  0  0  4           0  0  0
   -5.4398   -0.2575    2.1073 C   0  0  0  0  0  4           0  0  0
   -6.7667   -1.0684    3.9650 C   0  0  0  0  0  4           0  0  0
   -6.6834   -0.4981    2.6997 C   0  0  0  0  0  4           0  0  0
   -2.1734   -0.0000    1.3257 C   0  0  0  0  0  4           0  0  0
    0.0000   -0.0000    0.0000 C   0  0  0  0  0  4           0  0  0
   -2.7478   -1.9396    5.8329 C   0  0  0  0  0  4           0  0  0
   -0.6929   -1.1392    3.6774 C   0  0  0  0  0  4           0  0  0
    1.7978    2.4984    0.0165 C   0  0  0  0  0  4           0  0  0
   -0.6313   -0.0000    1.3905 C   0  0  1  0  0  4           0  0  0
   -0.0966   -1.1595    2.2621 C   0  0  0  0  0  4           0  0  0
  1 16  2  0     0  0
  2  5  1  0     0  0
  2  8  1  0     0  0
  2 17  1  0     0  0
  3  6  1  0     0  0
  3  7  1  0     0  0
  3 18  1  0     0  0
  4  5  2  0     0  0
  4  9  1  0     0  0
  5 20  1  0     0  0
  6 10  1  0     0  0
  6 12  2  0     0  0
  7 11  2  0     0  0
  7 19  1  0     0  0
  8  9  2  0     0  0
 10 11  1  0     0  0
 10 13  2  0     0  0
 11 16  1  0     0  0
 12 14  1  0     0  0
 13 15  1  0     0  0
 14 15  2  0     0  0
 16 21  1  0     0  0
 17 21  1  0     0  0
 19 22  1  0     0  0
 21 22  1  0     0  0
M  END
> <standard_type>
pIC50

> <# Confs.>
21

> <canonical_smiles>
CC1=NC=CN1CC2CCC3=C(C4=CC=CC=C4N3C)C2=O

> <standard_relation>
=

> <Publication_ID>
nan

> <predicted_activity_value>
nan

> <actual_activity_value>
0.09151498112135022

> <Compound>
Ondansetron

> <standard_units>
uM

> hash
15585365675579430521

$$$$
38
XXILIB    08252103503D 0   0.00000     0.00000

 22 25  0     1  0            999 V2000
   -2.7918    1.0500    1.1550 O   0  0  0  0  0  2           0  0  0
    1.4481   -0.0000    0.0000 N   0  0  0  0  0  3           0  0  0
   -2.9803   -3.5188    1.3612 N   0  0  0  0  0  3           0  0  0
    3.5458    0.7198   -0.0152 N   0  0  0  0  0  3           0  0  0
    2.2807    1.0962    0.0000 C   0  0  0  0  0  4           0  0  0
   -4.2657   -3.0493    1.1558 C   0  0  0  0  0  4           0  0  0
   -2.1115   -2.4638    1.4577 C   0  0  0  0  0  4           0  0  0
    2.2307   -1.1212   -0.0149 C   0  0  0  0  0  4           0  0  0
    3.5210   -0.6505   -0.0240 C   0  0  0  0  0  4           0  0  0
   -4.1914   -1.6518    1.0843 C   0  0  0  0  0  4           0  0  0
   -2.8248   -1.2978    1.2634 C   0  0  0  0  0  4           0  0  0
   -5.4850   -3.7344    1.0252 C   0  0  0  0  0  4           0  0  0
   -5.3786   -0.9198    0.8680 C   0  0  0  0  0  4           0  0  0
   -6.6448   -2.9848    0.8127 C   0  0  0  0  0  4           0  0  0
   -6.5944   -1.5974    0.7339 C   0  0  0  0  0  4           0  0  0
   -2.1655   -0.0000    1.2778 C   0  0  0  0  0  4           0  0  0
    0.0000   -0.0000    0.0000 C   0  0  0  0  0  4           0  0  0
   -2.6253   -4.9178    1.4637 C   0  0  0  0  0  4           0  0  0
   -0.6468   -2.5535    1.7194 C   0  0  0  0  0  4           0  0  0
    1.7978    2.4984    0.0165 C   0  0  0  0  0  4           0  0  0
   -0.6313   -0.0000    1.3905 C   0  0  1  0  0  4           0  0  0
   -0.1456   -1.1968    2.2383 C   0  0  0  0  0  4           0  0  0
  1 16  2  0     0  0
  2  5  1  0     0  0
  2  8  1  0     0  0
  2 17  1  0     0  0
  3  6  1  0     0  0
  3  7  1  0     0  0
  3 18  1  0     0  0
  4  5  2  0     0  0
  4  9  1  0     0  0
  5 20  1  0     0  0
  6 10  1  0     0  0
  6 12  2  0     0  0
  7 11  2  0     0  0
  7 19  1  0     0  0
  8  9  2  0     0  0
 10 11  1  0     0  0
 10 13  2  0     0  0
 11 16  1  0     0  0
 12 14  1  0     0  0
 13 15  1  0     0  0
 14 15  2  0     0  0
 16 21  1  0     0  0
 17 21  1  0     0  0
 19 22  1  0     0  0
 21 22  1  0     0  0
M  END
> <standard_type>
pIC50

> <# Confs.>
21

> <canonical_smiles>
CC1=NC=CN1CC2CCC3=C(C4=CC=CC=C4N3C)C2=O

> <standard_relation>
=

> <Publication_ID>
nan

> <predicted_activity_value>
nan

> <actual_activity_value>
0.09151498112135022

> <Compound>
Ondansetron

> <standard_units>
uM

> hash
15585365675579430521

$$$$
38
XXILIB    08252103503D 0   0.00000     0.00000

 22 25  0     1  0            999 V2000
   -2.7931   -1.0505    1.1654 O   0  0  0  0  0  2           0  0  0
    1.4481    0.0000    0.0000 N   0  0  0  0  0  3           0  0  0
   -2.9733    3.5208    1.3274 N   0  0  0  0  0  3           0  0  0
    3.5458    0.4983   -0.5197 N   0  0  0  0  0  3           0  0  0
    2.2807    0.7751   -0.7751 C   0  0  0  0  0  4           0  0  0
   -4.2578    3.0534    1.1134 C   0  0  0  0  0  4           0  0  0
   -2.1088    2.4640    1.4405 C   0  0  0  0  0  4           0  0  0
    2.2307   -0.8034    0.7823 C   0  0  0  0  0  4           0  0  0
    3.5210   -0.4769    0.4430 C   0  0  0  0  0  4           0  0  0
   -4.1863    1.6551    1.0511 C   0  0  0  0  0  4           0  0  0
   -2.8227    1.2985    1.2470 C   0  0  0  0  0  4           0  0  0
   -5.4746    3.7401    0.9678 C   0  0  0  0  0  4           0  0  0
   -5.3726    0.9246    0.8250 C   0  0  0  0  0  4           0  0  0
   -6.6339    2.9920    0.7479 C   0  0  0  0  0  4           0  0  0
   -6.5856    1.6041    0.6755 C   0  0  0  0  0  4           0  0  0
   -2.1654   -0.0000    1.2767 C   0  0  0  0  0  4           0  0  0
    0.0000   -0.0000    0.0000 C   0  0  0  0  0  4           0  0  0
   -2.6092    4.9180    1.4208 C   0  0  0  0  0  4           0  0  0
   -0.6464    2.5543    1.7147 C   0  0  0  0  0  4           0  0  0
    1.7978    1.7783   -1.7550 C   0  0  0  0  0  4           0  0  0
   -0.6313   -0.0000    1.3905 C   0  0  1  0  0  4           0  0  0
   -0.1476    1.1982    2.2376 C   0  0  0  0  0  4           0  0  0
  1 16  2  0     0  0
  2  5  1  0     0  0
  2  8  1  0     0  0
  2 17  1  0     0  0
  3  6  1  0     0  0
  3  7  1  0     0  0
  3 18  1  0     0  0
  4  5  2  0     0  0
  4  9  1  0     0  0
  5 20  1  0     0  0
  6 10  1  0     0  0
  6 12  2  0     0  0
  7 11  2  0     0  0
  7 19  1  0     0  0
  8  9  2  0     0  0
 10 11  1  0     0  0
 10 13  2  0     0  0
 11 16  1  0     0  0
 12 14  1  0     0  0
 13 15  1  0     0  0
 14 15  2  0     0  0
 16 21  1  0     0  0
 17 21  1  0     0  0
 19 22  1  0     0  0
 21 22  1  0     0  0
M  END
> <standard_type>
pIC50

> <# Confs.>
21

> <canonical_smiles>
CC1=NC=CN1CC2CCC3=C(C4=CC=CC=C4N3C)C2=O

> <standard_relation>
=

> <Publication_ID>
nan

> <predicted_activity_value>
nan

> <actual_activity_value>
0.09151498112135022

> <Compound>
Ondansetron

> <standard_units>
uM

> hash
15585365675579430521

$$$$
38
XXILIB    08252103503D 0   0.00000     0.00000

 22 25  0     1  0            999 V2000
   -2.7918    1.0500    1.1550 O   0  0  0  0  0  2           0  0  0
    1.4481    0.0000   -0.0000 N   0  0  0  0  0  3           0  0  0
   -2.9803   -3.5188    1.3612 N   0  0  0  0  0  3           0  0  0
    3.5458   -0.5197   -0.4983 N   0  0  0  0  0  3           0  0  0
    2.2807   -0.7751   -0.7751 C   0  0  0  0  0  4           0  0  0
   -4.2657   -3.0493    1.1558 C   0  0  0  0  0  4           0  0  0
   -2.1115   -2.4638    1.4577 C   0  0  0  0  0  4           0  0  0
    2.2307    0.7823    0.8034 C   0  0  0  0  0  4           0  0  0
    3.5210    0.4430    0.4769 C   0  0  0  0  0  4           0  0  0
   -4.1914   -1.6518    1.0843 C   0  0  0  0  0  4           0  0  0
   -2.8248   -1.2978    1.2634 C   0  0  0  0  0  4           0  0  0
   -5.4850   -3.7344    1.0252 C   0  0  0  0  0  4           0  0  0
   -5.3786   -0.9198    0.8680 C   0  0  0  0  0  4           0  0  0
   -6.6448   -2.9848    0.8127 C   0  0  0  0  0  4           0  0  0
   -6.5944   -1.5974    0.7339 C   0  0  0  0  0  4           0  0  0
   -2.1655   -0.0000    1.2778 C   0  0  0  0  0  4           0  0  0
    0.0000   -0.0000    0.0000 C   0  0  0  0  0  4           0  0  0
   -2.6253   -4.9178    1.4637 C   0  0  0  0  0  4           0  0  0
   -0.6468   -2.5535    1.7194 C   0  0  0  0  0  4           0  0  0
    1.7978   -1.7550   -1.7783 C   0  0  0  0  0  4           0  0  0
   -0.6313   -0.0000    1.3905 C   0  0  1  0  0  4           0  0  0
   -0.1456   -1.1968    2.2383 C   0  0  0  0  0  4           0  0  0
  1 16  2  0     0  0
  2  5  1  0     0  0
  2  8  1  0     0  0
  2 17  1  0     0  0
  3  6  1  0     0  0
  3  7  1  0     0  0
  3 18  1  0     0  0
  4  5  2  0     0  0
  4  9  1  0     0  0
  5 20  1  0     0  0
  6 10  1  0     0  0
  6 12  2  0     0  0
  7 11  2  0     0  0
  7 19  1  0     0  0
  8  9  2  0     0  0
 10 11  1  0     0  0
 10 13  2  0     0  0
 11 16  1  0     0  0
 12 14  1  0     0  0
 13 15  1  0     0  0
 14 15  2  0     0  0
 16 21  1  0     0  0
 17 21  1  0     0  0
 19 22  1  0     0  0
 21 22  1  0     0  0
M  END
> <standard_type>
pIC50

> <# Confs.>
21

> <canonical_smiles>
CC1=NC=CN1CC2CCC3=C(C4=CC=CC=C4N3C)C2=O

> <standard_relation>
=

> <Publication_ID>
nan

> <predicted_activity_value>
nan

> <actual_activity_value>
0.09151498112135022

> <Compound>
Ondansetron

> <standard_units>
uM

> hash
15585365675579430521

$$$$
38
XXILIB    08252103503D 0   0.00000     0.00000

 22 25  0     1  0            999 V2000
   -2.7931   -1.0505    1.1654 O   0  0  0  0  0  2           0  0  0
    1.4481    0.0000   -0.0000 N   0  0  0  0  0  3           0  0  0
   -2.9733    3.5208    1.3274 N   0  0  0  0  0  3           0  0  0
    3.5458   -0.7198    0.0152 N   0  0  0  0  0  3           0  0  0
    2.2807   -1.0962   -0.0000 C   0  0  0  0  0  4           0  0  0
   -4.2578    3.0534    1.1134 C   0  0  0  0  0  4           0  0  0
   -2.1088    2.4640    1.4405 C   0  0  0  0  0  4           0  0  0
    2.2307    1.1212    0.0149 C   0  0  0  0  0  4           0  0  0
    3.5210    0.6505    0.0240 C   0  0  0  0  0  4           0  0  0
   -4.1863    1.6551    1.0511 C   0  0  0  0  0  4           0  0  0
   -2.8227    1.2985    1.2470 C   0  0  0  0  0  4           0  0  0
   -5.4746    3.7401    0.9678 C   0  0  0  0  0  4           0  0  0
   -5.3726    0.9246    0.8250 C   0  0  0  0  0  4           0  0  0
   -6.6339    2.9920    0.7479 C   0  0  0  0  0  4           0  0  0
   -6.5856    1.6041    0.6755 C   0  0  0  0  0  4           0  0  0
   -2.1654   -0.0000    1.2767 C   0  0  0  0  0  4           0  0  0
    0.0000   -0.0000    0.0000 C   0  0  0  0  0  4           0  0  0
   -2.6092    4.9180    1.4208 C   0  0  0  0  0  4           0  0  0
   -0.6464    2.5543    1.7147 C   0  0  0  0  0  4           0  0  0
    1.7978   -2.4984   -0.0165 C   0  0  0  0  0  4           0  0  0
   -0.6313   -0.0000    1.3905 C   0  0  1  0  0  4           0  0  0
   -0.1476    1.1982    2.2376 C   0  0  0  0  0  4           0  0  0
  1 16  2  0     0  0
  2  5  1  0     0  0
  2  8  1  0     0  0
  2 17  1  0     0  0
  3  6  1  0     0  0
  3  7  1  0     0  0
  3 18  1  0     0  0
  4  5  2  0     0  0
  4  9  1  0     0  0
  5 20  1  0     0  0
  6 10  1  0     0  0
  6 12  2  0     0  0
  7 11  2  0     0  0
  7 19  1  0     0  0
  8  9  2  0     0  0
 10 11  1  0     0  0
 10 13  2  0     0  0
 11 16  1  0     0  0
 12 14  1  0     0  0
 13 15  1  0     0  0
 14 15  2  0     0  0
 16 21  1  0     0  0
 17 21  1  0     0  0
 19 22  1  0     0  0
 21 22  1  0     0  0
M  END
> <standard_type>
pIC50

> <# Confs.>
21

> <canonical_smiles>
CC1=NC=CN1CC2CCC3=C(C4=CC=CC=C4N3C)C2=O

> <standard_relation>
=

> <Publication_ID>
nan

> <predicted_activity_value>
nan

> <actual_activity_value>
0.09151498112135022

> <Compound>
Ondansetron

> <standard_units>
uM

> hash
15585365675579430521

$$$$
38
XXILIB    08252103503D 0   0.00000     0.00000

 22 25  0     1  0            999 V2000
    0.8510   -1.2601    2.8198 O   0  0  0  0  0  2           0  0  0
    1.4481   -0.0000    0.0000 N   0  0  0  0  0  3           0  0  0
   -2.8013   -3.6299    1.4055 N   0  0  0  0  0  3           0  0  0
    3.5458    0.7198   -0.0152 N   0  0  0  0  0  3           0  0  0
    2.2807    1.0962    0.0000 C   0  0  0  0  0  4           0  0  0
   -1.9990   -4.4857    2.1389 C   0  0  0  0  0  4           0  0  0
   -2.2425   -2.3792    1.3798 C   0  0  0  0  0  4           0  0  0
    2.2307   -1.1212   -0.0149 C   0  0  0  0  0  4           0  0  0
    3.5210   -0.6505   -0.0240 C   0  0  0  0  0  4           0  0  0
   -0.8785   -3.7524    2.5528 C   0  0  0  0  0  4           0  0  0
   -1.0403   -2.4287    2.0562 C   0  0  0  0  0  4           0  0  0
   -2.1617   -5.8406    2.4718 C   0  0  0  0  0  4           0  0  0
    0.1142   -4.4036    3.3160 C   0  0  0  0  0  4           0  0  0
   -1.1652   -6.4595    3.2307 C   0  0  0  0  0  4           0  0  0
   -0.0416   -5.7533    3.6464 C   0  0  0  0  0  4           0  0  0
   -0.1932   -1.2505    2.1721 C   0  0  0  0  0  4           0  0  0
    0.0000    0.0000    0.0000 C   0  0  0  0  0  4           0  0  0
   -4.0446   -4.0079    0.7691 C   0  0  0  0  0  4           0  0  0
   -2.8249   -1.1731    0.7257 C   0  0  0  0  0  4           0  0  0
    1.7978    2.4984    0.0165 C   0  0  0  0  0  4           0  0  0
   -0.6313   -0.0000    1.3905 C   0  0  1  0  0  4           0  0  0
   -2.1723    0.0856    1.3184 C   0  0  0  0  0  4           0  0  0
  1 16  2  0     0  0
  2  5  1  0     0  0
  2  8  1  0     0  0
  2 17  1  0     0  0
  3  6  1  0     0  0
  3  7  1  0     0  0
  3 18  1  0     0  0
  4  5  2  0     0  0
  4  9  1  0     0  0
  5 20  1  0     0  0
  6 10  1  0     0  0
  6 12  2  0     0  0
  7 11  2  0     0  0
  7 19  1  0     0  0
  8  9  2  0     0  0
 10 11  1  0     0  0
 10 13  2  0     0  0
 11 16  1  0     0  0
 12 14  1  0     0  0
 13 15  1  0     0  0
 14 15  2  0     0  0
 16 21  1  0     0  0
 17 21  1  0     0  0
 19 22  1  0     0  0
 21 22  1  0     0  0
M  END
> <standard_type>
pIC50

> <# Confs.>
21

> <canonical_smiles>
CC1=NC=CN1CC2CCC3=C(C4=CC=CC=C4N3C)C2=O

> <standard_relation>
=

> <Publication_ID>
nan

> <predicted_activity_value>
nan

> <actual_activity_value>
0.09151498112135022

> <Compound>
Ondansetron

> <standard_units>
uM

> hash
15585365675579430521

$$$$
38
XXILIB    08252103503D 0   0.00000     0.00000

 22 25  0     1  0            999 V2000
    0.8561    1.2630    2.8111 O   0  0  0  0  0  2           0  0  0
    1.4481    0.0000   -0.0000 N   0  0  0  0  0  3           0  0  0
   -2.8171    3.6222    1.4352 N   0  0  0  0  0  3           0  0  0
    3.5458   -0.7198    0.0152 N   0  0  0  0  0  3           0  0  0
    2.2807   -1.0962   -0.0000 C   0  0  0  0  0  4           0  0  0
   -2.0178    4.4746    2.1764 C   0  0  0  0  0  4           0  0  0
   -2.2514    2.3751    1.3942 C   0  0  0  0  0  4           0  0  0
    2.2307    1.1212    0.0149 C   0  0  0  0  0  4           0  0  0
    3.5210    0.6505    0.0240 C   0  0  0  0  0  4           0  0  0
   -0.8934    3.7429    2.5816 C   0  0  0  0  0  4           0  0  0
   -1.0484    2.4241    2.0698 C   0  0  0  0  0  4           0  0  0
   -2.1871    5.8255    2.5224 C   0  0  0  0  0  4           0  0  0
    0.0951    4.3905    3.3531 C   0  0  0  0  0  4           0  0  0
   -1.1935    6.4413    3.2876 C   0  0  0  0  0  4           0  0  0
   -0.0672    5.7361    3.6973 C   0  0  0  0  0  4           0  0  0
   -0.1938    1.2502    2.1729 C   0  0  0  0  0  4           0  0  0
    0.0000    0.0000    0.0000 C   0  0  0  0  0  4           0  0  0
   -4.0647    4.0051    0.8102 C   0  0  0  0  0  4           0  0  0
   -2.8268    1.1713    0.7297 C   0  0  0  0  0  4           0  0  0
    1.7978   -2.4984   -0.0165 C   0  0  0  0  0  4           0  0  0
   -0.6313   -0.0000    1.3905 C   0  0  1  0  0  4           0  0  0
   -2.1720   -0.0881    1.3183 C   0  0  0  0  0  4           0  0  0
  1 16  2  0     0  0
  2  5  1  0     0  0
  2  8  1  0     0  0
  2 17  1  0     0  0
  3  6  1  0     0  0
  3  7  1  0     0  0
  3 18  1  0     0  0
  4  5  2  0     0  0
  4  9  1  0     0  0
  5 20  1  0     0  0
  6 10  1  0     0  0
  6 12  2  0     0  0
  7 11  2  0     0  0
  7 19  1  0     0  0
  8  9  2  0     0  0
 10 11  1  0     0  0
 10 13  2  0     0  0
 11 16  1  0     0  0
 12 14  1  0     0  0
 13 15  1  0     0  0
 14 15  2  0     0  0
 16 21  1  0     0  0
 17 21  1  0     0  0
 19 22  1  0     0  0
 21 22  1  0     0  0
M  END
> <standard_type>
pIC50

> <# Confs.>
21

> <canonical_smiles>
CC1=NC=CN1CC2CCC3=C(C4=CC=CC=C4N3C)C2=O

> <standard_relation>
=

> <Publication_ID>
nan

> <predicted_activity_value>
nan

> <actual_activity_value>
0.09151498112135022

> <Compound>
Ondansetron

> <standard_units>
uM

> hash
15585365675579430521

$$$$
38
XXILIB    08252103503D 0   0.00000     0.00000

 22 25  0     1  0            999 V2000
   -2.7847    0.4544    0.3622 O   0  0  0  0  0  2           0  0  0
    1.4481    0.0000   -0.0000 N   0  0  0  0  0  3           0  0  0
   -3.0800   -1.3873    4.5375 N   0  0  0  0  0  3           0  0  0
    3.5458   -0.7198    0.0152 N   0  0  0  0  0  3           0  0  0
    2.2807   -1.0962   -0.0000 C   0  0  0  0  0  4           0  0  0
   -4.3657   -1.1634    4.0783 C   0  0  0  0  0  4           0  0  0
   -2.1745   -1.0161    3.5783 C   0  0  0  0  0  4           0  0  0
    2.2307    1.1212    0.0149 C   0  0  0  0  0  4           0  0  0
    3.5210    0.6505    0.0240 C   0  0  0  0  0  4           0  0  0
   -4.2580   -0.5963    2.8010 C   0  0  0  0  0  4           0  0  0
   -2.8691   -0.5022    2.5023 C   0  0  0  0  0  4           0  0  0
   -5.6133   -1.4104    4.6756 C   0  0  0  0  0  4           0  0  0
   -5.4398   -0.2575    2.1073 C   0  0  0  0  0  4           0  0  0
   -6.7667   -1.0684    3.9650 C   0  0  0  0  0  4           0  0  0
   -6.6834   -0.4981    2.6997 C   0  0  0  0  0  4           0  0  0
   -2.1734   -0.0000    1.3257 C   0  0  0  0  0  4           0  0  0
    0.0000   -0.0000    0.0000 C   0  0  0  0  0  4           0  0  0
   -2.7478   -1.9396    5.8329 C   0  0  0  0  0  4           0  0  0
   -0.6929   -1.1392    3.6774 C   0  0  0  0  0  4           0  0  0
    1.7978   -2.4984   -0.0165 C   0  0  0  0  0  4           0  0  0
   -0.6313   -0.0000    1.3905 C   0  0  1  0  0  4           0  0  0
   -0.0966   -1.1595    2.2621 C   0  0  0  0  0  4           0  0  0
  1 16  2  0     0  0
  2  5  1  0     0  0
  2  8  1  0     0  0
  2 17  1  0     0  0
  3  6  1  0     0  0
  3  7  1  0     0  0
  3 18  1  0     0  0
  4  5  2  0     0  0
  4  9  1  0     0  0
  5 20  1  0     0  0
  6 10  1  0     0  0
  6 12  2  0     0  0
  7 11  2  0     0  0
  7 19  1  0     0  0
  8  9  2  0     0  0
 10 11  1  0     0  0
 10 13  2  0     0  0
 11 16  1  0     0  0
 12 14  1  0     0  0
 13 15  1  0     0  0
 14 15  2  0     0  0
 16 21  1  0     0  0
 17 21  1  0     0  0
 19 22  1  0     0  0
 21 22  1  0     0  0
M  END
> <standard_type>
pIC50

> <# Confs.>
21

> <canonical_smiles>
CC1=NC=CN1CC2CCC3=C(C4=CC=CC=C4N3C)C2=O

> <standard_relation>
=

> <Publication_ID>
nan

> <predicted_activity_value>
nan

> <actual_activity_value>
0.09151498112135022

> <Compound>
Ondansetron

> <standard_units>
uM

> hash
15585365675579430521

$$$$
38
XXILIB    08252103503D 0   0.00000     0.00000

 22 25  0     1  0            999 V2000
    0.8561    1.2630    2.8111 O   0  0  0  0  0  2           0  0  0
    1.4481    0.0000    0.0000 N   0  0  0  0  0  3           0  0  0
   -2.8171    3.6222    1.4352 N   0  0  0  0  0  3           0  0  0
    3.5458    0.4983   -0.5197 N   0  0  0  0  0  3           0  0  0
    2.2807    0.7751   -0.7751 C   0  0  0  0  0  4           0  0  0
   -2.0178    4.4746    2.1764 C   0  0  0  0  0  4           0  0  0
   -2.2514    2.3751    1.3942 C   0  0  0  0  0  4           0  0  0
    2.2307   -0.8034    0.7823 C   0  0  0  0  0  4           0  0  0
    3.5210   -0.4769    0.4430 C   0  0  0  0  0  4           0  0  0
   -0.8934    3.7429    2.5816 C   0  0  0  0  0  4           0  0  0
   -1.0484    2.4241    2.0698 C   0  0  0  0  0  4           0  0  0
   -2.1871    5.8255    2.5224 C   0  0  0  0  0  4           0  0  0
    0.0951    4.3905    3.3531 C   0  0  0  0  0  4           0  0  0
   -1.1935    6.4413    3.2876 C   0  0  0  0  0  4           0  0  0
   -0.0672    5.7361    3.6973 C   0  0  0  0  0  4           0  0  0
   -0.1938    1.2502    2.1729 C   0  0  0  0  0  4           0  0  0
    0.0000    0.0000    0.0000 C   0  0  0  0  0  4           0  0  0
   -4.0647    4.0051    0.8102 C   0  0  0  0  0  4           0  0  0
   -2.8268    1.1713    0.7297 C   0  0  0  0  0  4           0  0  0
    1.7978    1.7783   -1.7550 C   0  0  0  0  0  4           0  0  0
   -0.6313   -0.0000    1.3905 C   0  0  1  0  0  4           0  0  0
   -2.1720   -0.0881    1.3183 C   0  0  0  0  0  4           0  0  0
  1 16  2  0     0  0
  2  5  1  0     0  0
  2  8  1  0     0  0
  2 17  1  0     0  0
  3  6  1  0     0  0
  3  7  1  0     0  0
  3 18  1  0     0  0
  4  5  2  0     0  0
  4  9  1  0     0  0
  5 20  1  0     0  0
  6 10  1  0     0  0
  6 12  2  0     0  0
  7 11  2  0     0  0
  7 19  1  0     0  0
  8  9  2  0     0  0
 10 11  1  0     0  0
 10 13  2  0     0  0
 11 16  1  0     0  0
 12 14  1  0     0  0
 13 15  1  0     0  0
 14 15  2  0     0  0
 16 21  1  0     0  0
 17 21  1  0     0  0
 19 22  1  0     0  0
 21 22  1  0     0  0
M  END
> <standard_type>
pIC50

> <# Confs.>
21

> <canonical_smiles>
CC1=NC=CN1CC2CCC3=C(C4=CC=CC=C4N3C)C2=O

> <standard_relation>
=

> <Publication_ID>
nan

> <predicted_activity_value>
nan

> <actual_activity_value>
0.09151498112135022

> <Compound>
Ondansetron

> <standard_units>
uM

> hash
15585365675579430521

$$$$
38
XXILIB    08252103503D 0   0.00000     0.00000

 22 25  0     1  0            999 V2000
    0.8510   -1.2601    2.8198 O   0  0  0  0  0  2           0  0  0
    1.4481    0.0000   -0.0000 N   0  0  0  0  0  3           0  0  0
   -2.8013   -3.6299    1.4055 N   0  0  0  0  0  3           0  0  0
    3.5458   -0.5197   -0.4983 N   0  0  0  0  0  3           0  0  0
    2.2807   -0.7751   -0.7751 C   0  0  0  0  0  4           0  0  0
   -1.9990   -4.4857    2.1389 C   0  0  0  0  0  4           0  0  0
   -2.2425   -2.3792    1.3798 C   0  0  0  0  0  4           0  0  0
    2.2307    0.7823    0.8034 C   0  0  0  0  0  4           0  0  0
    3.5210    0.4430    0.4769 C   0  0  0  0  0  4           0  0  0
   -0.8785   -3.7524    2.5528 C   0  0  0  0  0  4           0  0  0
   -1.0403   -2.4287    2.0562 C   0  0  0  0  0  4           0  0  0
   -2.1617   -5.8406    2.4718 C   0  0  0  0  0  4           0  0  0
    0.1142   -4.4036    3.3160 C   0  0  0  0  0  4           0  0  0
   -1.1652   -6.4595    3.2307 C   0  0  0  0  0  4           0  0  0
   -0.0416   -5.7533    3.6464 C   0  0  0  0  0  4           0  0  0
   -0.1932   -1.2505    2.1721 C   0  0  0  0  0  4           0  0  0
    0.0000    0.0000    0.0000 C   0  0  0  0  0  4           0  0  0
   -4.0446   -4.0079    0.7691 C   0  0  0  0  0  4           0  0  0
   -2.8249   -1.1731    0.7257 C   0  0  0  0  0  4           0  0  0
    1.7978   -1.7550   -1.7783 C   0  0  0  0  0  4           0  0  0
   -0.6313   -0.0000    1.3905 C   0  0  1  0  0  4           0  0  0
   -2.1723    0.0856    1.3184 C   0  0  0  0  0  4           0  0  0
  1 16  2  0     0  0
  2  5  1  0     0  0
  2  8  1  0     0  0
  2 17  1  0     0  0
  3  6  1  0     0  0
  3  7  1  0     0  0
  3 18  1  0     0  0
  4  5  2  0     0  0
  4  9  1  0     0  0
  5 20  1  0     0  0
  6 10  1  0     0  0
  6 12  2  0     0  0
  7 11  2  0     0  0
  7 19  1  0     0  0
  8  9  2  0     0  0
 10 11  1  0     0  0
 10 13  2  0     0  0
 11 16  1  0     0  0
 12 14  1  0     0  0
 13 15  1  0     0  0
 14 15  2  0     0  0
 16 21  1  0     0  0
 17 21  1  0     0  0
 19 22  1  0     0  0
 21 22  1  0     0  0
M  END
> <standard_type>
pIC50

> <# Confs.>
21

> <canonical_smiles>
CC1=NC=CN1CC2CCC3=C(C4=CC=CC=C4N3C)C2=O

> <standard_relation>
=

> <Publication_ID>
nan

> <predicted_activity_value>
nan

> <actual_activity_value>
0.09151498112135022

> <Compound>
Ondansetron

> <standard_units>
uM

> hash
15585365675579430521

$$$$
38
XXILIB    08252103503D 0   0.00000     0.00000

 22 25  0     1  0            999 V2000
   -2.7523   -0.4594    0.2987 O   0  0  0  0  0  2           0  0  0
    1.4481   -0.0000    0.0000 N   0  0  0  0  0  3           0  0  0
   -3.1821    1.4301    4.4379 N   0  0  0  0  0  3           0  0  0
    3.5458    0.7198   -0.0152 N   0  0  0  0  0  3           0  0  0
    2.2807    1.0962    0.0000 C   0  0  0  0  0  4           0  0  0
   -4.4516    1.1676    3.9541 C   0  0  0  0  0  4           0  0  0
   -2.2470    1.0652    3.5054 C   0  0  0  0  0  4           0  0  0
    2.2307   -1.1212   -0.0149 C   0  0  0  0  0  4           0  0  0
    3.5210   -0.6505   -0.0240 C   0  0  0  0  0  4           0  0  0
   -4.3016    0.5797    2.6907 C   0  0  0  0  0  4           0  0  0
   -2.9044    0.5106    2.4267 C   0  0  0  0  0  4           0  0  0
   -5.7170    1.3961    4.5198 C   0  0  0  0  0  4           0  0  0
   -5.4597    0.2028    1.9769 C   0  0  0  0  0  4           0  0  0
   -6.8461    1.0168    3.7896 C   0  0  0  0  0  4           0  0  0
   -6.7215    0.4277    2.5363 C   0  0  0  0  0  4           0  0  0
   -2.1702   -0.0000    1.2777 C   0  0  0  0  0  4           0  0  0
    0.0000   -0.0000    0.0000 C   0  0  0  0  0  4           0  0  0
   -2.8994    2.0127    5.7318 C   0  0  0  0  0  4           0  0  0
   -0.7725    1.2311    3.6310 C   0  0  0  0  0  4           0  0  0
    1.7978    2.4984    0.0165 C   0  0  0  0  0  4           0  0  0
   -0.6313   -0.0000    1.3905 C   0  0  1  0  0  4           0  0  0
   -0.1395    1.2022    2.2315 C   0  0  0  0  0  4           0  0  0
  1 16  2  0     0  0
  2  5  1  0     0  0
  2  8  1  0     0  0
  2 17  1  0     0  0
  3  6  1  0     0  0
  3  7  1  0     0  0
  3 18  1  0     0  0
  4  5  2  0     0  0
  4  9  1  0     0  0
  5 20  1  0     0  0
  6 10  1  0     0  0
  6 12  2  0     0  0
  7 11  2  0     0  0
  7 19  1  0     0  0
  8  9  2  0     0  0
 10 11  1  0     0  0
 10 13  2  0     0  0
 11 16  1  0     0  0
 12 14  1  0     0  0
 13 15  1  0     0  0
 14 15  2  0     0  0
 16 21  1  0     0  0
 17 21  1  0     0  0
 19 22  1  0     0  0
 21 22  1  0     0  0
M  END
> <standard_type>
pIC50

> <# Confs.>
21

> <canonical_smiles>
CC1=NC=CN1CC2CCC3=C(C4=CC=CC=C4N3C)C2=O

> <standard_relation>
=

> <Publication_ID>
nan

> <predicted_activity_value>
nan

> <actual_activity_value>
0.09151498112135022

> <Compound>
Ondansetron

> <standard_units>
uM

> hash
15585365675579430521

$$$$
38
XXILIB    08252103503D 0   0.00000     0.00000

 22 25  0     1  0            999 V2000
    0.8324    1.8390    2.0044 O   0  0  0  0  0  2           0  0  0
    1.4481    0.0000    0.0000 N   0  0  0  0  0  3           0  0  0
   -2.9055    1.4980    4.6168 N   0  0  0  0  0  3           0  0  0
    3.5458    0.4983   -0.5197 N   0  0  0  0  0  3           0  0  0
    2.2807    0.7751   -0.7751 C   0  0  0  0  0  4           0  0  0
   -2.1563    2.5643    5.0814 C   0  0  0  0  0  4           0  0  0
   -2.2917    0.9417    3.5250 C   0  0  0  0  0  4           0  0  0
    2.2307   -0.8034    0.7823 C   0  0  0  0  0  4           0  0  0
    3.5210   -0.4769    0.4430 C   0  0  0  0  0  4           0  0  0
   -1.0142    2.6531    4.2737 C   0  0  0  0  0  4           0  0  0
   -1.1098    1.6177    3.3011 C   0  0  0  0  0  4           0  0  0
   -2.3844    3.4577    6.1415 C   0  0  0  0  0  4           0  0  0
   -0.0674    3.6639    4.5463 C   0  0  0  0  0  4           0  0  0
   -1.4324    4.4507    6.3868 C   0  0  0  0  0  4           0  0  0
   -0.2885    4.5529    5.6029 C   0  0  0  0  0  4           0  0  0
   -0.2189    1.2393    2.2130 C   0  0  0  0  0  4           0  0  0
    0.0000    0.0000    0.0000 C   0  0  0  0  0  4           0  0  0
   -4.1533    1.0484    5.1948 C   0  0  0  0  0  4           0  0  0
   -2.8059   -0.2005    2.7181 C   0  0  0  0  0  4           0  0  0
    1.7978    1.7783   -1.7550 C   0  0  0  0  0  4           0  0  0
   -0.6313   -0.0000    1.3905 C   0  0  1  0  0  4           0  0  0
   -2.1680   -0.1539    1.3217 C   0  0  0  0  0  4           0  0  0
  1 16  2  0     0  0
  2  5  1  0     0  0
  2  8  1  0     0  0
  2 17  1  0     0  0
  3  6  1  0     0  0
  3  7  1  0     0  0
  3 18  1  0     0  0
  4  5  2  0     0  0
  4  9  1  0     0  0
  5 20  1  0     0  0
  6 10  1  0     0  0
  6 12  2  0     0  0
  7 11  2  0     0  0
  7 19  1  0     0  0
  8  9  2  0     0  0
 10 11  1  0     0  0
 10 13  2  0     0  0
 11 16  1  0     0  0
 12 14  1  0     0  0
 13 15  1  0     0  0
 14 15  2  0     0  0
 16 21  1  0     0  0
 17 21  1  0     0  0
 19 22  1  0     0  0
 21 22  1  0     0  0
M  END
> <standard_type>
pIC50

> <# Confs.>
21

> <canonical_smiles>
CC1=NC=CN1CC2CCC3=C(C4=CC=CC=C4N3C)C2=O

> <standard_relation>
=

> <Publication_ID>
nan

> <predicted_activity_value>
nan

> <actual_activity_value>
0.09151498112135022

> <Compound>
Ondansetron

> <standard_units>
uM

> hash
15585365675579430521

$$$$
38
XXILIB    08252103503D 0   0.00000     0.00000

 22 25  0     1  0            999 V2000
    0.1157   -2.2935    1.6790 O   0  0  0  0  0  2           0  0  0
    1.4481   -0.0000    0.0000 N   0  0  0  0  0  3           0  0  0
   -0.7174   -0.1107    5.6101 N   0  0  0  0  0  3           0  0  0
    3.5458    0.7198   -0.0152 N   0  0  0  0  0  3           0  0  0
    2.2807    1.0962    0.0000 C   0  0  0  0  0  4           0  0  0
   -0.3215   -1.4009    5.9144 C   0  0  0  0  0  4           0  0  0
   -0.6893    0.0743    4.2525 C   0  0  0  0  0  4           0  0  0
    2.2307   -1.1212   -0.0149 C   0  0  0  0  0  4           0  0  0
    3.5210   -0.6505   -0.0240 C   0  0  0  0  0  4           0  0  0
   -0.0738   -2.0568    4.7006 C   0  0  0  0  0  4           0  0  0
   -0.3177   -1.1155    3.6606 C   0  0  0  0  0  4           0  0  0
   -0.1600   -2.0473    7.1514 C   0  0  0  0  0  4           0  0  0
    0.3387   -3.4064    4.7307 C   0  0  0  0  0  4           0  0  0
    0.2526   -3.3823    7.1518 C   0  0  0  0  0  4           0  0  0
    0.4970   -4.0548    5.9595 C   0  0  0  0  0  4           0  0  0
   -0.2189   -1.2393    2.2130 C   0  0  0  0  0  4           0  0  0
    0.0000    0.0000    0.0000 C   0  0  0  0  0  4           0  0  0
   -1.0944    0.8912    6.5836 C   0  0  0  0  0  4           0  0  0
   -1.0092    1.3398    3.5338 C   0  0  0  0  0  4           0  0  0
    1.7978    2.4984    0.0165 C   0  0  0  0  0  4           0  0  0
   -0.6313   -0.0000    1.3905 C   0  0  1  0  0  4           0  0  0
   -0.3393    1.3134    2.1519 C   0  0  0  0  0  4           0  0  0
  1 16  2  0     0  0
  2  5  1  0     0  0
  2  8  1  0     0  0
  2 17  1  0     0  0
  3  6  1  0     0  0
  3  7  1  0     0  0
  3 18  1  0     0  0
  4  5  2  0     0  0
  4  9  1  0     0  0
  5 20  1  0     0  0
  6 10  1  0     0  0
  6 12  2  0     0  0
  7 11  2  0     0  0
  7 19  1  0     0  0
  8  9  2  0     0  0
 10 11  1  0     0  0
 10 13  2  0     0  0
 11 16  1  0     0  0
 12 14  1  0     0  0
 13 15  1  0     0  0
 14 15  2  0     0  0
 16 21  1  0     0  0
 17 21  1  0     0  0
 19 22  1  0     0  0
 21 22  1  0     0  0
M  END
> <standard_type>
pIC50

> <# Confs.>
21

> <canonical_smiles>
CC1=NC=CN1CC2CCC3=C(C4=CC=CC=C4N3C)C2=O

> <standard_relation>
=

> <Publication_ID>
nan

> <predicted_activity_value>
nan

> <actual_activity_value>
0.09151498112135022

> <Compound>
Ondansetron

> <standard_units>
uM

> hash
15585365675579430521

$$$$
38
XXILIB    08252103503D 0   0.00000     0.00000

 22 25  0     1  0            999 V2000
    0.8643   -1.8337    1.9405 O   0  0  0  0  0  2           0  0  0
    1.4481    0.0000   -0.0000 N   0  0  0  0  0  3           0  0  0
   -2.8581   -1.6355    4.5850 N   0  0  0  0  0  3           0  0  0
    3.5458   -0.5197   -0.4983 N   0  0  0  0  0  3           0  0  0
    2.2807   -0.7751   -0.7751 C   0  0  0  0  0  4           0  0  0
   -2.0686   -2.6785    5.0360 C   0  0  0  0  0  4           0  0  0
   -2.2717   -1.0496    3.4942 C   0  0  0  0  0  4           0  0  0
    2.2307    0.7823    0.8034 C   0  0  0  0  0  4           0  0  0
    3.5210    0.4430    0.4769 C   0  0  0  0  0  4           0  0  0
   -0.9282   -2.7187    4.2222 C   0  0  0  0  0  4           0  0  0
   -1.0651   -1.6768    3.2617 C   0  0  0  0  0  4           0  0  0
   -2.2598   -3.5882    6.0893 C   0  0  0  0  0  4           0  0  0
    0.0543   -3.6990    4.4802 C   0  0  0  0  0  4           0  0  0
   -1.2734   -4.5503    6.3196 C   0  0  0  0  0  4           0  0  0
   -0.1315   -4.6062    5.5281 C   0  0  0  0  0  4           0  0  0
   -0.1926   -1.2539    2.1755 C   0  0  0  0  0  4           0  0  0
    0.0000    0.0000    0.0000 C   0  0  0  0  0  4           0  0  0
   -4.1169   -1.2407    5.1790 C   0  0  0  0  0  4           0  0  0
   -2.8326    0.0752    2.6957 C   0  0  0  0  0  4           0  0  0
    1.7978   -1.7550   -1.7783 C   0  0  0  0  0  4           0  0  0
   -0.6313   -0.0000    1.3905 C   0  0  1  0  0  4           0  0  0
   -2.1740    0.0878    1.3079 C   0  0  0  0  0  4           0  0  0
  1 16  2  0     0  0
  2  5  1  0     0  0
  2  8  1  0     0  0
  2 17  1  0     0  0
  3  6  1  0     0  0
  3  7  1  0     0  0
  3 18  1  0     0  0
  4  5  2  0     0  0
  4  9  1  0     0  0
  5 20  1  0     0  0
  6 10  1  0     0  0
  6 12  2  0     0  0
  7 11  2  0     0  0
  7 19  1  0     0  0
  8  9  2  0     0  0
 10 11  1  0     0  0
 10 13  2  0     0  0
 11 16  1  0     0  0
 12 14  1  0     0  0
 13 15  1  0     0  0
 14 15  2  0     0  0
 16 21  1  0     0  0
 17 21  1  0     0  0
 19 22  1  0     0  0
 21 22  1  0     0  0
M  END
> <standard_type>
pIC50

> <# Confs.>
21

> <canonical_smiles>
CC1=NC=CN1CC2CCC3=C(C4=CC=CC=C4N3C)C2=O

> <standard_relation>
=

> <Publication_ID>
nan

> <predicted_activity_value>
nan

> <actual_activity_value>
0.09151498112135022

> <Compound>
Ondansetron

> <standard_units>
uM

> hash
15585365675579430521

$$$$
38
XXILIB    08252103503D 0   0.00000     0.00000

 22 25  0     1  0            999 V2000
    0.1398    2.2931    1.6116 O   0  0  0  0  0  2           0  0  0
    1.4481    0.0000   -0.0000 N   0  0  0  0  0  3           0  0  0
   -0.6026    0.2055    5.6090 N   0  0  0  0  0  3           0  0  0
    3.5458   -0.7198    0.0152 N   0  0  0  0  0  3           0  0  0
    2.2807   -1.0962   -0.0000 C   0  0  0  0  0  4           0  0  0
   -0.2271    1.5110    5.8720 C   0  0  0  0  0  4           0  0  0
   -0.5917   -0.0157    4.2569 C   0  0  0  0  0  4           0  0  0
    2.2307    1.1212    0.0149 C   0  0  0  0  0  4           0  0  0
    3.5210    0.6505    0.0240 C   0  0  0  0  0  4           0  0  0
   -0.0139    2.1389    4.6373 C   0  0  0  0  0  4           0  0  0
   -0.2598    1.1662    3.6273 C   0  0  0  0  0  4           0  0  0
   -0.0580    2.1921    7.0889 C   0  0  0  0  0  4           0  0  0
    0.3741    3.4962    4.6254 C   0  0  0  0  0  4           0  0  0
    0.3303    3.5335    7.0477 C   0  0  0  0  0  4           0  0  0
    0.5431    4.1785    5.8344 C   0  0  0  0  0  4           0  0  0
   -0.1926    1.2539    2.1755 C   0  0  0  0  0  4           0  0  0
    0.0000    0.0000    0.0000 C   0  0  0  0  0  4           0  0  0
   -0.9426   -0.7719    6.6201 C   0  0  0  0  0  4           0  0  0
   -0.8911   -1.3063    3.5771 C   0  0  0  0  0  4           0  0  0
    1.7978   -2.4984   -0.0165 C   0  0  0  0  0  4           0  0  0
   -0.6313   -0.0000    1.3905 C   0  0  1  0  0  4           0  0  0
   -0.2779   -1.2900    2.1687 C   0  0  0  0  0  4           0  0  0
  1 16  2  0     0  0
  2  5  1  0     0  0
  2  8  1  0     0  0
  2 17  1  0     0  0
  3  6  1  0     0  0
  3  7  1  0     0  0
  3 18  1  0     0  0
  4  5  2  0     0  0
  4  9  1  0     0  0
  5 20  1  0     0  0
  6 10  1  0     0  0
  6 12  2  0     0  0
  7 11  2  0     0  0
  7 19  1  0     0  0
  8  9  2  0     0  0
 10 11  1  0     0  0
 10 13  2  0     0  0
 11 16  1  0     0  0
 12 14  1  0     0  0
 13 15  1  0     0  0
 14 15  2  0     0  0
 16 21  1  0     0  0
 17 21  1  0     0  0
 19 22  1  0     0  0
 21 22  1  0     0  0
M  END
> <standard_type>
pIC50

> <# Confs.>
21

> <canonical_smiles>
CC1=NC=CN1CC2CCC3=C(C4=CC=CC=C4N3C)C2=O

> <standard_relation>
=

> <Publication_ID>
nan

> <predicted_activity_value>
nan

> <actual_activity_value>
0.09151498112135022

> <Compound>
Ondansetron

> <standard_units>
uM

> hash
15585365675579430521

$$$$
38
XXILIB    08252103503D 0   0.00000     0.00000

 22 25  0     1  0            999 V2000
   -2.7741   -1.0127    0.9608 O   0  0  0  0  0  2           0  0  0
    1.4481   -0.0000   -0.0000 N   0  0  0  0  0  3           0  0  0
   -3.0554    3.4084    2.1058 N   0  0  0  0  0  3           0  0  0
    3.5458   -0.4983    0.5197 N   0  0  0  0  0  3           0  0  0
    2.2807   -0.7751    0.7751 C   0  0  0  0  0  4           0  0  0
   -4.3389    2.9408    1.8895 C   0  0  0  0  0  4           0  0  0
   -2.1550    2.3882    1.9380 C   0  0  0  0  0  4           0  0  0
    2.2307    0.8034   -0.7823 C   0  0  0  0  0  4           0  0  0
    3.5210    0.4769   -0.4430 C   0  0  0  0  0  4           0  0  0
   -4.2339    1.5864    1.5439 C   0  0  0  0  0  4           0  0  0
   -2.8496    1.2536    1.5726 C   0  0  0  0  0  4           0  0  0
   -5.5822    3.5905    1.9669 C   0  0  0  0  0  4           0  0  0
   -5.4138    0.8660    1.2584 C   0  0  0  0  0  4           0  0  0
   -6.7337    2.8530    1.6810 C   0  0  0  0  0  4           0  0  0
   -6.6528    1.5101    1.3295 C   0  0  0  0  0  4           0  0  0
   -2.1645   -0.0000    1.2980 C   0  0  0  0  0  4           0  0  0
    0.0000   -0.0000    0.0000 C   0  0  0  0  0  4           0  0  0
   -2.7171    4.7687    2.4652 C   0  0  0  0  0  4           0  0  0
   -0.6793    2.4944    2.1080 C   0  0  0  0  0  4           0  0  0
    1.7978   -1.7783    1.7550 C   0  0  0  0  0  4           0  0  0
   -0.6313   -0.0000    1.3905 C   0  0  1  0  0  4           0  0  0
   -0.0896    1.0962    2.3353 C   0  0  0  0  0  4           0  0  0
  1 16  2  0     0  0
  2  5  1  0     0  0
  2  8  1  0     0  0
  2 17  1  0     0  0
  3  6  1  0     0  0
  3  7  1  0     0  0
  3 18  1  0     0  0
  4  5  2  0     0  0
  4  9  1  0     0  0
  5 20  1  0     0  0
  6 10  1  0     0  0
  6 12  2  0     0  0
  7 11  2  0     0  0
  7 19  1  0     0  0
  8  9  2  0     0  0
 10 11  1  0     0  0
 10 13  2  0     0  0
 11 16  1  0     0  0
 12 14  1  0     0  0
 13 15  1  0     0  0
 14 15  2  0     0  0
 16 21  1  0     0  0
 17 21  1  0     0  0
 19 22  1  0     0  0
 21 22  1  0     0  0
M  END
> <standard_type>
pIC50

> <# Confs.>
21

> <canonical_smiles>
CC1=NC=CN1CC2CCC3=C(C4=CC=CC=C4N3C)C2=O

> <standard_relation>
=

> <Publication_ID>
nan

> <predicted_activity_value>
nan

> <actual_activity_value>
0.09151498112135022

> <Compound>
Ondansetron

> <standard_units>
uM

> hash
15585365675579430521

$$$$
38
XXILIB    08252103503D 0   0.00000     0.00000

 22 25  0     1  0            999 V2000
    0.8324    1.8390    2.0044 O   0  0  0  0  0  2           0  0  0
    1.4481    0.0000   -0.0000 N   0  0  0  0  0  3           0  0  0
   -2.9055    1.4980    4.6168 N   0  0  0  0  0  3           0  0  0
    3.5458   -0.7198    0.0152 N   0  0  0  0  0  3           0  0  0
    2.2807   -1.0962   -0.0000 C   0  0  0  0  0  4           0  0  0
   -2.1563    2.5643    5.0814 C   0  0  0  0  0  4           0  0  0
   -2.2917    0.9417    3.5250 C   0  0  0  0  0  4           0  0  0
    2.2307    1.1212    0.0149 C   0  0  0  0  0  4           0  0  0
    3.5210    0.6505    0.0240 C   0  0  0  0  0  4           0  0  0
   -1.0142    2.6531    4.2737 C   0  0  0  0  0  4           0  0  0
   -1.1098    1.6177    3.3011 C   0  0  0  0  0  4           0  0  0
   -2.3844    3.4577    6.1415 C   0  0  0  0  0  4           0  0  0
   -0.0674    3.6639    4.5463 C   0  0  0  0  0  4           0  0  0
   -1.4324    4.4507    6.3868 C   0  0  0  0  0  4           0  0  0
   -0.2885    4.5529    5.6029 C   0  0  0  0  0  4           0  0  0
   -0.2189    1.2393    2.2130 C   0  0  0  0  0  4           0  0  0
    0.0000    0.0000    0.0000 C   0  0  0  0  0  4           0  0  0
   -4.1533    1.0484    5.1948 C   0  0  0  0  0  4           0  0  0
   -2.8059   -0.2005    2.7181 C   0  0  0  0  0  4           0  0  0
    1.7978   -2.4984   -0.0165 C   0  0  0  0  0  4           0  0  0
   -0.6313   -0.0000    1.3905 C   0  0  1  0  0  4           0  0  0
   -2.1680   -0.1539    1.3217 C   0  0  0  0  0  4           0  0  0
  1 16  2  0     0  0
  2  5  1  0     0  0
  2  8  1  0     0  0
  2 17  1  0     0  0
  3  6  1  0     0  0
  3  7  1  0     0  0
  3 18  1  0     0  0
  4  5  2  0     0  0
  4  9  1  0     0  0
  5 20  1  0     0  0
  6 10  1  0     0  0
  6 12  2  0     0  0
  7 11  2  0     0  0
  7 19  1  0     0  0
  8  9  2  0     0  0
 10 11  1  0     0  0
 10 13  2  0     0  0
 11 16  1  0     0  0
 12 14  1  0     0  0
 13 15  1  0     0  0
 14 15  2  0     0  0
 16 21  1  0     0  0
 17 21  1  0     0  0
 19 22  1  0     0  0
 21 22  1  0     0  0
M  END
> <standard_type>
pIC50

> <# Confs.>
21

> <canonical_smiles>
CC1=NC=CN1CC2CCC3=C(C4=CC=CC=C4N3C)C2=O

> <standard_relation>
=

> <Publication_ID>
nan

> <predicted_activity_value>
nan

> <actual_activity_value>
0.09151498112135022

> <Compound>
Ondansetron

> <standard_units>
uM

> hash
15585365675579430521

$$$$
38
XXILIB    08252103503D 0   0.00000     0.00000

 22 25  0     1  0            999 V2000
   -0.6650    2.3500    1.9183 O   0  0  0  0  0  2           0  0  0
    1.4481   -0.0000    0.0000 N   0  0  0  0  0  3           0  0  0
    2.2432   -0.0487    4.5114 N   0  0  0  0  0  3           0  0  0
    3.5458    0.7198   -0.0152 N   0  0  0  0  0  3           0  0  0
    2.2807    1.0962    0.0000 C   0  0  0  0  0  4           0  0  0
    2.3094    1.2747    4.9078 C   0  0  0  0  0  4           0  0  0
    1.3142   -0.1886    3.5129 C   0  0  0  0  0  4           0  0  0
    2.2307   -1.1212   -0.0149 C   0  0  0  0  0  4           0  0  0
    3.5210   -0.6505   -0.0240 C   0  0  0  0  0  4           0  0  0
    1.4110    1.9928    4.1066 C   0  0  0  0  0  4           0  0  0
    0.7949    1.0573    3.2272 C   0  0  0  0  0  4           0  0  0
    3.0810    1.9025    5.8999 C   0  0  0  0  0  4           0  0  0
    1.2916    3.3856    4.3026 C   0  0  0  0  0  4           0  0  0
    2.9414    3.2817    6.0735 C   0  0  0  0  0  4           0  0  0
    2.0612    4.0151    5.2856 C   0  0  0  0  0  4           0  0  0
   -0.2054    1.2422    2.1874 C   0  0  0  0  0  4           0  0  0
    0.0000    0.0000    0.0000 C   0  0  0  0  0  4           0  0  0
    3.0306   -1.1243    5.0746 C   0  0  0  0  0  4           0  0  0
    0.9424   -1.4662    2.8442 C   0  0  0  0  0  4           0  0  0
    1.7978    2.4984    0.0165 C   0  0  0  0  0  4           0  0  0
   -0.6313   -0.0000    1.3905 C   0  0  1  0  0  4           0  0  0
   -0.4323   -1.3134    2.1798 C   0  0  0  0  0  4           0  0  0
  1 16  2  0     0  0
  2  5  1  0     0  0
  2  8  1  0     0  0
  2 17  1  0     0  0
  3  6  1  0     0  0
  3  7  1  0     0  0
  3 18  1  0     0  0
  4  5  2  0     0  0
  4  9  1  0     0  0
  5 20  1  0     0  0
  6 10  1  0     0  0
  6 12  2  0     0  0
  7 11  2  0     0  0
  7 19  1  0     0  0
  8  9  2  0     0  0
 10 11  1  0     0  0
 10 13  2  0     0  0
 11 16  1  0     0  0
 12 14  1  0     0  0
 13 15  1  0     0  0
 14 15  2  0     0  0
 16 21  1  0     0  0
 17 21  1  0     0  0
 19 22  1  0     0  0
 21 22  1  0     0  0
M  END
> <standard_type>
pIC50

> <# Confs.>
21

> <canonical_smiles>
CC1=NC=CN1CC2CCC3=C(C4=CC=CC=C4N3C)C2=O

> <standard_relation>
=

> <Publication_ID>
nan

> <predicted_activity_value>
nan

> <actual_activity_value>
0.09151498112135022

> <Compound>
Ondansetron

> <standard_units>
uM

> hash
15585365675579430521

$$$$
38
XXILIB    08252103503D 0   0.00000     0.00000

 22 25  0     1  0            999 V2000
    0.8643   -1.8337    1.9405 O   0  0  0  0  0  2           0  0  0
    1.4481   -0.0000    0.0000 N   0  0  0  0  0  3           0  0  0
   -2.8581   -1.6355    4.5850 N   0  0  0  0  0  3           0  0  0
    3.5458    0.7198   -0.0152 N   0  0  0  0  0  3           0  0  0
    2.2807    1.0962    0.0000 C   0  0  0  0  0  4           0  0  0
   -2.0686   -2.6785    5.0360 C   0  0  0  0  0  4           0  0  0
   -2.2717   -1.0496    3.4942 C   0  0  0  0  0  4           0  0  0
    2.2307   -1.1212   -0.0149 C   0  0  0  0  0  4           0  0  0
    3.5210   -0.6505   -0.0240 C   0  0  0  0  0  4           0  0  0
   -0.9282   -2.7187    4.2222 C   0  0  0  0  0  4           0  0  0
   -1.0651   -1.6768    3.2617 C   0  0  0  0  0  4           0  0  0
   -2.2598   -3.5882    6.0893 C   0  0  0  0  0  4           0  0  0
    0.0543   -3.6990    4.4802 C   0  0  0  0  0  4           0  0  0
   -1.2734   -4.5503    6.3196 C   0  0  0  0  0  4           0  0  0
   -0.1315   -4.6062    5.5281 C   0  0  0  0  0  4           0  0  0
   -0.1926   -1.2539    2.1755 C   0  0  0  0  0  4           0  0  0
    0.0000    0.0000    0.0000 C   0  0  0  0  0  4           0  0  0
   -4.1169   -1.2407    5.1790 C   0  0  0  0  0  4           0  0  0
   -2.8326    0.0752    2.6957 C   0  0  0  0  0  4           0  0  0
    1.7978    2.4984    0.0165 C   0  0  0  0  0  4           0  0  0
   -0.6313   -0.0000    1.3905 C   0  0  1  0  0  4           0  0  0
   -2.1740    0.0878    1.3079 C   0  0  0  0  0  4           0  0  0
  1 16  2  0     0  0
  2  5  1  0     0  0
  2  8  1  0     0  0
  2 17  1  0     0  0
  3  6  1  0     0  0
  3  7  1  0     0  0
  3 18  1  0     0  0
  4  5  2  0     0  0
  4  9  1  0     0  0
  5 20  1  0     0  0
  6 10  1  0     0  0
  6 12  2  0     0  0
  7 11  2  0     0  0
  7 19  1  0     0  0
  8  9  2  0     0  0
 10 11  1  0     0  0
 10 13  2  0     0  0
 11 16  1  0     0  0
 12 14  1  0     0  0
 13 15  1  0     0  0
 14 15  2  0     0  0
 16 21  1  0     0  0
 17 21  1  0     0  0
 19 22  1  0     0  0
 21 22  1  0     0  0
M  END
> <standard_type>
pIC50

> <# Confs.>
21

> <canonical_smiles>
CC1=NC=CN1CC2CCC3=C(C4=CC=CC=C4N3C)C2=O

> <standard_relation>
=

> <Publication_ID>
nan

> <predicted_activity_value>
nan

> <actual_activity_value>
0.09151498112135022

> <Compound>
Ondansetron

> <standard_units>
uM

> hash
15585365675579430521

$$$$
38
XXILIB    08252103503D 0   0.00000     0.00000

 22 25  0     1  0            999 V2000
    0.1157   -2.2935    1.6790 O   0  0  0  0  0  2           0  0  0
    1.4481    0.0000    0.0000 N   0  0  0  0  0  3           0  0  0
   -0.7174   -0.1107    5.6101 N   0  0  0  0  0  3           0  0  0
    3.5458   -0.0152   -0.7198 N   0  0  0  0  0  3           0  0  0
    2.2807    0.0000   -1.0962 C   0  0  0  0  0  4           0  0  0
   -0.3215   -1.4009    5.9144 C   0  0  0  0  0  4           0  0  0
   -0.6893    0.0743    4.2525 C   0  0  0  0  0  4           0  0  0
    2.2307   -0.0149    1.1212 C   0  0  0  0  0  4           0  0  0
    3.5210   -0.0240    0.6505 C   0  0  0  0  0  4           0  0  0
   -0.0738   -2.0568    4.7006 C   0  0  0  0  0  4           0  0  0
   -0.3177   -1.1155    3.6606 C   0  0  0  0  0  4           0  0  0
   -0.1600   -2.0473    7.1514 C   0  0  0  0  0  4           0  0  0
    0.3387   -3.4064    4.7307 C   0  0  0  0  0  4           0  0  0
    0.2526   -3.3823    7.1518 C   0  0  0  0  0  4           0  0  0
    0.4970   -4.0548    5.9595 C   0  0  0  0  0  4           0  0  0
   -0.2189   -1.2393    2.2130 C   0  0  0  0  0  4           0  0  0
    0.0000    0.0000    0.0000 C   0  0  0  0  0  4           0  0  0
   -1.0944    0.8912    6.5836 C   0  0  0  0  0  4           0  0  0
   -1.0092    1.3398    3.5338 C   0  0  0  0  0  4           0  0  0
    1.7978    0.0165   -2.4984 C   0  0  0  0  0  4           0  0  0
   -0.6313   -0.0000    1.3905 C   0  0  1  0  0  4           0  0  0
   -0.3393    1.3134    2.1519 C   0  0  0  0  0  4           0  0  0
  1 16  2  0     0  0
  2  5  1  0     0  0
  2  8  1  0     0  0
  2 17  1  0     0  0
  3  6  1  0     0  0
  3  7  1  0     0  0
  3 18  1  0     0  0
  4  5  2  0     0  0
  4  9  1  0     0  0
  5 20  1  0     0  0
  6 10  1  0     0  0
  6 12  2  0     0  0
  7 11  2  0     0  0
  7 19  1  0     0  0
  8  9  2  0     0  0
 10 11  1  0     0  0
 10 13  2  0     0  0
 11 16  1  0     0  0
 12 14  1  0     0  0
 13 15  1  0     0  0
 14 15  2  0     0  0
 16 21  1  0     0  0
 17 21  1  0     0  0
 19 22  1  0     0  0
 21 22  1  0     0  0
M  END
> <standard_type>
pIC50

> <# Confs.>
21

> <canonical_smiles>
CC1=NC=CN1CC2CCC3=C(C4=CC=CC=C4N3C)C2=O

> <standard_relation>
=

> <Publication_ID>
nan

> <predicted_activity_value>
nan

> <actual_activity_value>
0.09151498112135022

> <Compound>
Ondansetron

> <standard_units>
uM

> hash
15585365675579430521

$$$$
47
XXILIB    08252103503D 0   0.00000     0.00000

 30 34  0     1  0            999 V2000
    9.8189    2.0225    1.1427 F   0  0  0  0  0  1           0  0  0
    7.6530   -1.5915   -1.1509 O   0  0  0  0  0  2           0  0  0
   -2.0901   -2.3690    1.4231 O   0  0  0  0  0  2           0  0  0
    6.3225   -1.9285   -1.3358 N   0  0  0  0  0  3           0  0  0
   -4.1616   -1.3061    1.4402 N   0  0  2  0  0  3           0  0  0
   -4.2541    1.0569    1.5252 N   0  0  0  0  0  3           0  0  0
    1.4676    0.0000    0.0000 N   0  0  1  0  0  3           0  0  0
    8.7342    1.3453    0.7382 C   0  0  0  0  0  4           0  0  0
    7.7366   -0.4564   -0.4092 C   0  0  0  0  0  4           0  0  0
   -2.7647   -1.3398    1.4228 C   0  0  0  0  0  4           0  0  0
   -4.8360   -0.1007    1.5134 C   0  0  0  0  0  4           0  0  0
    5.6116   -0.9868   -0.6974 C   0  0  0  0  0  4           0  0  0
   -2.8826    1.0925    1.4726 C   0  0  0  0  0  4           0  0  0
    6.4613   -0.0249   -0.0877 C   0  0  0  0  0  4           0  0  0
   -2.0952   -0.0000    1.4193 C   0  0  0  0  0  4           0  0  0
    8.9077    0.1886   -0.0237 C   0  0  0  0  0  4           0  0  0
    7.4707    1.8204    1.0917 C   0  0  0  0  0  4           0  0  0
    6.3156    1.1410    0.6839 C   0  0  0  0  0  4           0  0  0
   -4.8529   -2.5964    1.5193 C   0  0  0  0  0  4           0  0  0
    0.0000    0.0000    0.0000 C   0  0  0  0  0  4           0  0  0
    2.0106   -1.1853    0.6843 C   0  0  0  0  0  4           0  0  0
    1.9691    0.0811   -1.3812 C   0  0  0  0  0  4           0  0  0
    4.1247   -1.0509   -0.7026 C   0  0  1  0  0  4           0  0  0
   -6.3536   -0.1042    1.5136 C   0  0  0  0  0  4           0  0  0
   -0.6012    0.0000    1.4115 C   0  0  0  0  0  4           0  0  0
   -2.3314    2.4942    1.4489 C   0  0  0  0  0  4           0  0  0
   -6.3314   -2.5469    1.1827 C   0  0  0  0  0  4           0  0  0
    3.5419   -1.1604    0.7132 C   0  0  0  0  0  4           0  0  0
    3.4968    0.1527   -1.4180 C   0  0  0  0  0  4           0  0  0
   -6.9773   -1.4127    1.9522 C   0  0  0  0  0  4           0  0  0
  1  8  1  0     0  0
  2  4  1  0     0  0
  2  9  1  0     0  0
  3 10  2  0     0  0
  4 12  2  0     0  0
  5 10  1  0     0  0
  5 11  1  0     0  0
  5 19  1  0     0  0
  6 11  2  0     0  0
  6 13  1  0     0  0
  7 20  1  0     0  0
  7 21  1  0     0  0
  7 22  1  0     0  0
  8 16  2  0     0  0
  8 17  1  0     0  0
  9 14  2  0     0  0
  9 16  1  0     0  0
 10 15  1  0     0  0
 11 24  1  0     0  0
 12 14  1  0     0  0
 12 23  1  0     0  0
 13 15  2  0     0  0
 13 26  1  0     0  0
 14 18  1  0     0  0
 15 25  1  0     0  0
 17 18  2  0     0  0
 19 27  1  0     0  0
 20 25  1  0     0  0
 21 28  1  0     0  0
 22 29  1  0     0  0
 23 28  1  0     0  0
 23 29  1  0     0  0
 24 30  1  0     0  0
 27 30  1  0     0  0
M  END
> <standard_type>
pIC50

> <# Confs.>
25

> <canonical_smiles>
O=C1C(CCN2CCC(CC2)C3=NOC4=C3C=CC(F)=C4)=C(N=C5N1CCCC5)C

> <standard_relation>
=

> <Publication_ID>
nan

> <predicted_activity_value>
nan

> <actual_activity_value>
0.7772835288524167

> <Compound>
Risperidone

> <standard_units>
uM

> hash
1864929009563516205

$$$$
47
XXILIB    08252103503D 0   0.00000     0.00000

 30 34  0     1  0            999 V2000
    8.1125    5.4779   -3.7055 F   0  0  0  0  0  1           0  0  0
    3.7207    4.0173   -2.4438 O   0  0  0  0  0  2           0  0  0
   -2.0856    2.3704    1.4222 O   0  0  0  0  0  2           0  0  0
    3.2587    2.9187   -1.7385 N   0  0  0  0  0  3           0  0  0
   -4.1591    1.3129    1.4410 N   0  0  2  0  0  3           0  0  0
   -4.2582   -1.0495    1.5129 N   0  0  0  0  0  3           0  0  0
    1.4679   -0.0000    0.0000 N   0  0  1  0  0  3           0  0  0
    7.2617    4.6213   -3.1212 C   0  0  0  0  0  4           0  0  0
    5.0752    3.9642   -2.5337 C   0  0  0  0  0  4           0  0  0
   -2.7622    1.3425    1.4228 C   0  0  0  0  0  4           0  0  0
   -4.8370    0.1092    1.5030 C   0  0  0  0  0  4           0  0  0
    4.3475    2.2078   -1.4088 C   0  0  0  0  0  4           0  0  0
   -2.8862   -1.0907    1.4695 C   0  0  0  0  0  4           0  0  0
    5.5322    2.8264   -1.8915 C   0  0  0  0  0  4           0  0  0
   -2.0952   -0.0000    1.4193 C   0  0  0  0  0  4           0  0  0
    5.8938    4.8958   -3.1648 C   0  0  0  0  0  4           0  0  0
    7.7729    3.4870   -2.4895 C   0  0  0  0  0  4           0  0  0
    6.9144    2.5725   -1.8659 C   0  0  0  0  0  4           0  0  0
   -4.8490    2.6039    1.5304 C   0  0  0  0  0  4           0  0  0
    0.0000    0.0000   -0.0000 C   0  0  0  0  0  4           0  0  0
    2.0086    1.1850    0.6841 C   0  0  0  0  0  4           0  0  0
    1.9712   -0.0757   -1.3792 C   0  0  0  0  0  4           0  0  0
    4.2014    0.9475   -0.6309 C   0  0  1  0  0  4           0  0  0
   -6.3545    0.1157    1.4903 C   0  0  0  0  0  4           0  0  0
   -0.6012    0.0000    1.4115 C   0  0  0  0  0  4           0  0  0
   -2.3521   -2.4999    1.4525 C   0  0  0  0  0  4           0  0  0
   -6.3230    2.5618    1.1724 C   0  0  0  0  0  4           0  0  0
    3.5394    1.1504    0.7398 C   0  0  0  0  0  4           0  0  0
    3.4987   -0.1719   -1.4125 C   0  0  0  0  0  4           0  0  0
   -6.9825    1.4238    1.9240 C   0  0  0  0  0  4           0  0  0
  1  8  1  0     0  0
  2  4  1  0     0  0
  2  9  1  0     0  0
  3 10  2  0     0  0
  4 12  2  0     0  0
  5 10  1  0     0  0
  5 11  1  0     0  0
  5 19  1  0     0  0
  6 11  2  0     0  0
  6 13  1  0     0  0
  7 20  1  0     0  0
  7 21  1  0     0  0
  7 22  1  0     0  0
  8 16  2  0     0  0
  8 17  1  0     0  0
  9 14  2  0     0  0
  9 16  1  0     0  0
 10 15  1  0     0  0
 11 24  1  0     0  0
 12 14  1  0     0  0
 12 23  1  0     0  0
 13 15  2  0     0  0
 13 26  1  0     0  0
 14 18  1  0     0  0
 15 25  1  0     0  0
 17 18  2  0     0  0
 19 27  1  0     0  0
 20 25  1  0     0  0
 21 28  1  0     0  0
 22 29  1  0     0  0
 23 28  1  0     0  0
 23 29  1  0     0  0
 24 30  1  0     0  0
 27 30  1  0     0  0
M  END
> <standard_type>
pIC50

> <# Confs.>
25

> <canonical_smiles>
O=C1C(CCN2CCC(CC2)C3=NOC4=C3C=CC(F)=C4)=C(N=C5N1CCCC5)C

> <standard_relation>
=

> <Publication_ID>
nan

> <predicted_activity_value>
nan

> <actual_activity_value>
0.7772835288524167

> <Compound>
Risperidone

> <standard_units>
uM

> hash
1864929009563516205

$$$$
47
XXILIB    08252103503D 0   0.00000     0.00000

 30 34  0     1  0            999 V2000
    9.8189    2.0225    1.1427 F   0  0  0  0  0  1           0  0  0
    7.6530   -1.5915   -1.1509 O   0  0  0  0  0  2           0  0  0
   -2.0856    2.3704    1.4222 O   0  0  0  0  0  2           0  0  0
    6.3225   -1.9285   -1.3358 N   0  0  0  0  0  3           0  0  0
   -4.1591    1.3129    1.4410 N   0  0  2  0  0  3           0  0  0
   -4.2582   -1.0495    1.5129 N   0  0  0  0  0  3           0  0  0
    1.4676    0.0000    0.0000 N   0  0  1  0  0  3           0  0  0
    8.7342    1.3453    0.7382 C   0  0  0  0  0  4           0  0  0
    7.7366   -0.4564   -0.4092 C   0  0  0  0  0  4           0  0  0
   -2.7622    1.3425    1.4228 C   0  0  0  0  0  4           0  0  0
   -4.8370    0.1092    1.5030 C   0  0  0  0  0  4           0  0  0
    5.6116   -0.9868   -0.6974 C   0  0  0  0  0  4           0  0  0
   -2.8862   -1.0907    1.4695 C   0  0  0  0  0  4           0  0  0
    6.4613   -0.0249   -0.0877 C   0  0  0  0  0  4           0  0  0
   -2.0952   -0.0000    1.4193 C   0  0  0  0  0  4           0  0  0
    8.9077    0.1886   -0.0237 C   0  0  0  0  0  4           0  0  0
    7.4707    1.8204    1.0917 C   0  0  0  0  0  4           0  0  0
    6.3156    1.1410    0.6839 C   0  0  0  0  0  4           0  0  0
   -4.8490    2.6039    1.5304 C   0  0  0  0  0  4           0  0  0
    0.0000    0.0000   -0.0000 C   0  0  0  0  0  4           0  0  0
    2.0106   -1.1853    0.6843 C   0  0  0  0  0  4           0  0  0
    1.9691    0.0811   -1.3812 C   0  0  0  0  0  4           0  0  0
    4.1247   -1.0509   -0.7026 C   0  0  1  0  0  4           0  0  0
   -6.3545    0.1157    1.4903 C   0  0  0  0  0  4           0  0  0
   -0.6012    0.0000    1.4115 C   0  0  0  0  0  4           0  0  0
   -2.3521   -2.4999    1.4525 C   0  0  0  0  0  4           0  0  0
   -6.3230    2.5618    1.1724 C   0  0  0  0  0  4           0  0  0
    3.5419   -1.1604    0.7132 C   0  0  0  0  0  4           0  0  0
    3.4968    0.1527   -1.4180 C   0  0  0  0  0  4           0  0  0
   -6.9825    1.4238    1.9240 C   0  0  0  0  0  4           0  0  0
  1  8  1  0     0  0
  2  4  1  0     0  0
  2  9  1  0     0  0
  3 10  2  0     0  0
  4 12  2  0     0  0
  5 10  1  0     0  0
  5 11  1  0     0  0
  5 19  1  0     0  0
  6 11  2  0     0  0
  6 13  1  0     0  0
  7 20  1  0     0  0
  7 21  1  0     0  0
  7 22  1  0     0  0
  8 16  2  0     0  0
  8 17  1  0     0  0
  9 14  2  0     0  0
  9 16  1  0     0  0
 10 15  1  0     0  0
 11 24  1  0     0  0
 12 14  1  0     0  0
 12 23  1  0     0  0
 13 15  2  0     0  0
 13 26  1  0     0  0
 14 18  1  0     0  0
 15 25  1  0     0  0
 17 18  2  0     0  0
 19 27  1  0     0  0
 20 25  1  0     0  0
 21 28  1  0     0  0
 22 29  1  0     0  0
 23 28  1  0     0  0
 23 29  1  0     0  0
 24 30  1  0     0  0
 27 30  1  0     0  0
M  END
> <standard_type>
pIC50

> <# Confs.>
25

> <canonical_smiles>
O=C1C(CCN2CCC(CC2)C3=NOC4=C3C=CC(F)=C4)=C(N=C5N1CCCC5)C

> <standard_relation>
=

> <Publication_ID>
nan

> <predicted_activity_value>
nan

> <actual_activity_value>
0.7772835288524167

> <Compound>
Risperidone

> <standard_units>
uM

> hash
1864929009563516205

$$$$
47
XXILIB    08252103503D 0   0.00000     0.00000

 30 34  0     1  0            999 V2000
    8.1125    5.4779   -3.7055 F   0  0  0  0  0  1           0  0  0
    3.7207    4.0173   -2.4438 O   0  0  0  0  0  2           0  0  0
   -2.0901   -2.3690    1.4231 O   0  0  0  0  0  2           0  0  0
    3.2587    2.9187   -1.7385 N   0  0  0  0  0  3           0  0  0
   -4.1616   -1.3061    1.4402 N   0  0  2  0  0  3           0  0  0
   -4.2541    1.0569    1.5252 N   0  0  0  0  0  3           0  0  0
    1.4679   -0.0000    0.0000 N   0  0  1  0  0  3           0  0  0
    7.2617    4.6213   -3.1212 C   0  0  0  0  0  4           0  0  0
    5.0752    3.9642   -2.5337 C   0  0  0  0  0  4           0  0  0
   -2.7647   -1.3398    1.4228 C   0  0  0  0  0  4           0  0  0
   -4.8360   -0.1007    1.5134 C   0  0  0  0  0  4           0  0  0
    4.3475    2.2078   -1.4088 C   0  0  0  0  0  4           0  0  0
   -2.8826    1.0925    1.4726 C   0  0  0  0  0  4           0  0  0
    5.5322    2.8264   -1.8915 C   0  0  0  0  0  4           0  0  0
   -2.0952   -0.0000    1.4193 C   0  0  0  0  0  4           0  0  0
    5.8938    4.8958   -3.1648 C   0  0  0  0  0  4           0  0  0
    7.7729    3.4870   -2.4895 C   0  0  0  0  0  4           0  0  0
    6.9144    2.5725   -1.8659 C   0  0  0  0  0  4           0  0  0
   -4.8529   -2.5964    1.5193 C   0  0  0  0  0  4           0  0  0
    0.0000    0.0000    0.0000 C   0  0  0  0  0  4           0  0  0
    2.0086    1.1850    0.6841 C   0  0  0  0  0  4           0  0  0
    1.9712   -0.0757   -1.3792 C   0  0  0  0  0  4           0  0  0
    4.2014    0.9475   -0.6309 C   0  0  1  0  0  4           0  0  0
   -6.3536   -0.1042    1.5136 C   0  0  0  0  0  4           0  0  0
   -0.6012    0.0000    1.4115 C   0  0  0  0  0  4           0  0  0
   -2.3314    2.4942    1.4489 C   0  0  0  0  0  4           0  0  0
   -6.3314   -2.5469    1.1827 C   0  0  0  0  0  4           0  0  0
    3.5394    1.1504    0.7398 C   0  0  0  0  0  4           0  0  0
    3.4987   -0.1719   -1.4125 C   0  0  0  0  0  4           0  0  0
   -6.9773   -1.4127    1.9522 C   0  0  0  0  0  4           0  0  0
  1  8  1  0     0  0
  2  4  1  0     0  0
  2  9  1  0     0  0
  3 10  2  0     0  0
  4 12  2  0     0  0
  5 10  1  0     0  0
  5 11  1  0     0  0
  5 19  1  0     0  0
  6 11  2  0     0  0
  6 13  1  0     0  0
  7 20  1  0     0  0
  7 21  1  0     0  0
  7 22  1  0     0  0
  8 16  2  0     0  0
  8 17  1  0     0  0
  9 14  2  0     0  0
  9 16  1  0     0  0
 10 15  1  0     0  0
 11 24  1  0     0  0
 12 14  1  0     0  0
 12 23  1  0     0  0
 13 15  2  0     0  0
 13 26  1  0     0  0
 14 18  1  0     0  0
 15 25  1  0     0  0
 17 18  2  0     0  0
 19 27  1  0     0  0
 20 25  1  0     0  0
 21 28  1  0     0  0
 22 29  1  0     0  0
 23 28  1  0     0  0
 23 29  1  0     0  0
 24 30  1  0     0  0
 27 30  1  0     0  0
M  END
> <standard_type>
pIC50

> <# Confs.>
25

> <canonical_smiles>
O=C1C(CCN2CCC(CC2)C3=NOC4=C3C=CC(F)=C4)=C(N=C5N1CCCC5)C

> <standard_relation>
=

> <Publication_ID>
nan

> <predicted_activity_value>
nan

> <actual_activity_value>
0.7772835288524167

> <Compound>
Risperidone

> <standard_units>
uM

> hash
1864929009563516205

$$$$
47
XXILIB    08252103503D 0   0.00000     0.00000

 30 34  0     1  0            999 V2000
   10.0749   -3.6222   -2.5076 F   0  0  0  0  0  1           0  0  0
    7.5902   -0.2088   -0.2301 O   0  0  0  0  0  2           0  0  0
   -2.0901   -2.3690    1.4231 O   0  0  0  0  0  2           0  0  0
    6.2344    0.0124   -0.0545 N   0  0  0  0  0  3           0  0  0
   -4.1616   -1.3061    1.4402 N   0  0  2  0  0  3           0  0  0
   -4.2541    1.0569    1.5252 N   0  0  0  0  0  3           0  0  0
    1.4676    0.0000    0.0000 N   0  0  1  0  0  3           0  0  0
    8.9331   -3.0410   -2.1108 C   0  0  0  0  0  4           0  0  0
    7.7763   -1.3322   -0.9708 C   0  0  0  0  0  4           0  0  0
   -2.7647   -1.3398    1.4228 C   0  0  0  0  0  4           0  0  0
   -4.8360   -0.1007    1.5134 C   0  0  0  0  0  4           0  0  0
    5.6116   -0.9868   -0.6974 C   0  0  0  0  0  4           0  0  0
   -2.8826    1.0925    1.4726 C   0  0  0  0  0  4           0  0  0
    6.5451   -1.8718   -1.3010 C   0  0  0  0  0  4           0  0  0
   -2.0952   -0.0000    1.4193 C   0  0  0  0  0  4           0  0  0
    9.0012   -1.8739   -1.3481 C   0  0  0  0  0  4           0  0  0
    7.7177   -3.6230   -2.4729 C   0  0  0  0  0  4           0  0  0
    6.5056   -3.0456   -2.0732 C   0  0  0  0  0  4           0  0  0
   -4.8529   -2.5964    1.5193 C   0  0  0  0  0  4           0  0  0
    0.0000    0.0000    0.0000 C   0  0  0  0  0  4           0  0  0
    2.0106   -1.1853    0.6843 C   0  0  0  0  0  4           0  0  0
    1.9691    0.0811   -1.3812 C   0  0  0  0  0  4           0  0  0
    4.1247   -1.0509   -0.7026 C   0  0  1  0  0  4           0  0  0
   -6.3536   -0.1042    1.5136 C   0  0  0  0  0  4           0  0  0
   -0.6012    0.0000    1.4115 C   0  0  0  0  0  4           0  0  0
   -2.3314    2.4942    1.4489 C   0  0  0  0  0  4           0  0  0
   -6.3314   -2.5469    1.1827 C   0  0  0  0  0  4           0  0  0
    3.5419   -1.1604    0.7132 C   0  0  0  0  0  4           0  0  0
    3.4968    0.1527   -1.4180 C   0  0  0  0  0  4           0  0  0
   -6.9773   -1.4127    1.9522 C   0  0  0  0  0  4           0  0  0
  1  8  1  0     0  0
  2  4  1  0     0  0
  2  9  1  0     0  0
  3 10  2  0     0  0
  4 12  2  0     0  0
  5 10  1  0     0  0
  5 11  1  0     0  0
  5 19  1  0     0  0
  6 11  2  0     0  0
  6 13  1  0     0  0
  7 20  1  0     0  0
  7 21  1  0     0  0
  7 22  1  0     0  0
  8 16  2  0     0  0
  8 17  1  0     0  0
  9 14  2  0     0  0
  9 16  1  0     0  0
 10 15  1  0     0  0
 11 24  1  0     0  0
 12 14  1  0     0  0
 12 23  1  0     0  0
 13 15  2  0     0  0
 13 26  1  0     0  0
 14 18  1  0     0  0
 15 25  1  0     0  0
 17 18  2  0     0  0
 19 27  1  0     0  0
 20 25  1  0     0  0
 21 28  1  0     0  0
 22 29  1  0     0  0
 23 28  1  0     0  0
 23 29  1  0     0  0
 24 30  1  0     0  0
 27 30  1  0     0  0
M  END
> <standard_type>
pIC50

> <# Confs.>
25

> <canonical_smiles>
O=C1C(CCN2CCC(CC2)C3=NOC4=C3C=CC(F)=C4)=C(N=C5N1CCCC5)C

> <standard_relation>
=

> <Publication_ID>
nan

> <predicted_activity_value>
nan

> <actual_activity_value>
0.7772835288524167

> <Compound>
Risperidone

> <standard_units>
uM

> hash
1864929009563516205

$$$$
47
XXILIB    08252103503D 0   0.00000     0.00000

 30 34  0     1  0            999 V2000
    9.8189   -2.0008    1.1802 F   0  0  0  0  0  1           0  0  0
    7.6530    1.7925   -0.8028 O   0  0  0  0  0  2           0  0  0
   -2.0856    2.3704    1.4222 O   0  0  0  0  0  2           0  0  0
    6.3225    2.1210   -1.0022 N   0  0  0  0  0  3           0  0  0
   -4.1591    1.3129    1.4410 N   0  0  2  0  0  3           0  0  0
   -4.2582   -1.0495    1.5129 N   0  0  0  0  0  3           0  0  0
    1.4676   -0.0000   -0.0000 N   0  0  1  0  0  3           0  0  0
    8.7342   -1.3119    0.7959 C   0  0  0  0  0  4           0  0  0
    7.7366    0.5826   -0.1907 C   0  0  0  0  0  4           0  0  0
   -2.7622    1.3425    1.4228 C   0  0  0  0  0  4           0  0  0
   -4.8370    0.1092    1.5030 C   0  0  0  0  0  4           0  0  0
    5.6116    1.0974   -0.5059 C   0  0  0  0  0  4           0  0  0
   -2.8862   -1.0907    1.4695 C   0  0  0  0  0  4           0  0  0
    6.4613    0.0884    0.0223 C   0  0  0  0  0  4           0  0  0
   -2.0952   -0.0000    1.4193 C   0  0  0  0  0  4           0  0  0
    8.9077   -0.0737    0.1752 C   0  0  0  0  0  4           0  0  0
    7.4707   -1.8556    1.0307 C   0  0  0  0  0  4           0  0  0
    6.3156   -1.1627    0.6462 C   0  0  0  0  0  4           0  0  0
   -4.8490    2.6039    1.5304 C   0  0  0  0  0  4           0  0  0
    0.0000    0.0000   -0.0000 C   0  0  0  0  0  4           0  0  0
    2.0106    0.0000   -1.3686 C   0  0  0  0  0  4           0  0  0
    1.9691    1.1555    0.7609 C   0  0  0  0  0  4           0  0  0
    4.1247    1.1339   -0.5588 C   0  0  1  0  0  4           0  0  0
   -6.3545    0.1157    1.4903 C   0  0  0  0  0  4           0  0  0
   -0.6012    0.0000    1.4115 C   0  0  0  0  0  4           0  0  0
   -2.3521   -2.4999    1.4525 C   0  0  0  0  0  4           0  0  0
   -6.3230    2.5618    1.1724 C   0  0  0  0  0  4           0  0  0
    3.5419   -0.0374   -1.3615 C   0  0  0  0  0  4           0  0  0
    3.4968    1.1516    0.8412 C   0  0  0  0  0  4           0  0  0
   -6.9825    1.4238    1.9240 C   0  0  0  0  0  4           0  0  0
  1  8  1  0     0  0
  2  4  1  0     0  0
  2  9  1  0     0  0
  3 10  2  0     0  0
  4 12  2  0     0  0
  5 10  1  0     0  0
  5 11  1  0     0  0
  5 19  1  0     0  0
  6 11  2  0     0  0
  6 13  1  0     0  0
  7 20  1  0     0  0
  7 21  1  0     0  0
  7 22  1  0     0  0
  8 16  2  0     0  0
  8 17  1  0     0  0
  9 14  2  0     0  0
  9 16  1  0     0  0
 10 15  1  0     0  0
 11 24  1  0     0  0
 12 14  1  0     0  0
 12 23  1  0     0  0
 13 15  2  0     0  0
 13 26  1  0     0  0
 14 18  1  0     0  0
 15 25  1  0     0  0
 17 18  2  0     0  0
 19 27  1  0     0  0
 20 25  1  0     0  0
 21 28  1  0     0  0
 22 29  1  0     0  0
 23 28  1  0     0  0
 23 29  1  0     0  0
 24 30  1  0     0  0
 27 30  1  0     0  0
M  END
> <standard_type>
pIC50

> <# Confs.>
25

> <canonical_smiles>
O=C1C(CCN2CCC(CC2)C3=NOC4=C3C=CC(F)=C4)=C(N=C5N1CCCC5)C

> <standard_relation>
=

> <Publication_ID>
nan

> <predicted_activity_value>
nan

> <actual_activity_value>
0.7772835288524167

> <Compound>
Risperidone

> <standard_units>
uM

> hash
1864929009563516205

$$$$
47
XXILIB    08252103503D 0   0.00000     0.00000

 30 34  0     1  0            999 V2000
    6.6470    7.1893   -1.2082 F   0  0  0  0  0  1           0  0  0
    4.0728    3.5927   -3.0656 O   0  0  0  0  0  2           0  0  0
   -2.0856    2.3704    1.4222 O   0  0  0  0  0  2           0  0  0
    3.7558    2.3250   -2.6071 N   0  0  0  0  0  3           0  0  0
   -4.1591    1.3129    1.4410 N   0  0  2  0  0  3           0  0  0
   -4.2582   -1.0495    1.5129 N   0  0  0  0  0  3           0  0  0
    1.4679   -0.0000    0.0000 N   0  0  1  0  0  3           0  0  0
    6.1262    5.9537   -1.1759 C   0  0  0  0  0  4           0  0  0
    4.8466    4.2288   -2.1480 C   0  0  0  0  0  4           0  0  0
   -2.7622    1.3425    1.4228 C   0  0  0  0  0  4           0  0  0
   -4.8370    0.1092    1.5030 C   0  0  0  0  0  4           0  0  0
    4.3475    2.2078   -1.4088 C   0  0  0  0  0  4           0  0  0
   -2.8862   -1.0907    1.4695 C   0  0  0  0  0  4           0  0  0
    5.0576    3.3902   -1.0672 C   0  0  0  0  0  4           0  0  0
   -2.0952   -0.0000    1.4193 C   0  0  0  0  0  4           0  0  0
    5.3559    5.5192   -2.2558 C   0  0  0  0  0  4           0  0  0
    6.3711    5.1464   -0.0645 C   0  0  0  0  0  4           0  0  0
    5.8403    3.8519    0.0052 C   0  0  0  0  0  4           0  0  0
   -4.8490    2.6039    1.5304 C   0  0  0  0  0  4           0  0  0
    0.0000    0.0000   -0.0000 C   0  0  0  0  0  4           0  0  0
    2.0086    1.1850    0.6841 C   0  0  0  0  0  4           0  0  0
    1.9712   -0.0757   -1.3792 C   0  0  0  0  0  4           0  0  0
    4.2014    0.9475   -0.6309 C   0  0  1  0  0  4           0  0  0
   -6.3545    0.1157    1.4903 C   0  0  0  0  0  4           0  0  0
   -0.6012    0.0000    1.4115 C   0  0  0  0  0  4           0  0  0
   -2.3521   -2.4999    1.4525 C   0  0  0  0  0  4           0  0  0
   -6.3230    2.5618    1.1724 C   0  0  0  0  0  4           0  0  0
    3.5394    1.1504    0.7398 C   0  0  0  0  0  4           0  0  0
    3.4987   -0.1719   -1.4125 C   0  0  0  0  0  4           0  0  0
   -6.9825    1.4238    1.9240 C   0  0  0  0  0  4           0  0  0
  1  8  1  0     0  0
  2  4  1  0     0  0
  2  9  1  0     0  0
  3 10  2  0     0  0
  4 12  2  0     0  0
  5 10  1  0     0  0
  5 11  1  0     0  0
  5 19  1  0     0  0
  6 11  2  0     0  0
  6 13  1  0     0  0
  7 20  1  0     0  0
  7 21  1  0     0  0
  7 22  1  0     0  0
  8 16  2  0     0  0
  8 17  1  0     0  0
  9 14  2  0     0  0
  9 16  1  0     0  0
 10 15  1  0     0  0
 11 24  1  0     0  0
 12 14  1  0     0  0
 12 23  1  0     0  0
 13 15  2  0     0  0
 13 26  1  0     0  0
 14 18  1  0     0  0
 15 25  1  0     0  0
 17 18  2  0     0  0
 19 27  1  0     0  0
 20 25  1  0     0  0
 21 28  1  0     0  0
 22 29  1  0     0  0
 23 28  1  0     0  0
 23 29  1  0     0  0
 24 30  1  0     0  0
 27 30  1  0     0  0
M  END
> <standard_type>
pIC50

> <# Confs.>
25

> <canonical_smiles>
O=C1C(CCN2CCC(CC2)C3=NOC4=C3C=CC(F)=C4)=C(N=C5N1CCCC5)C

> <standard_relation>
=

> <Publication_ID>
nan

> <predicted_activity_value>
nan

> <actual_activity_value>
0.7772835288524167

> <Compound>
Risperidone

> <standard_units>
uM

> hash
1864929009563516205

$$$$
47
XXILIB    08252103503D 0   0.00000     0.00000

 30 34  0     1  0            999 V2000
    7.5473    4.6608   -5.1353 F   0  0  0  0  0  1           0  0  0
    3.8659    4.2178   -2.0918 O   0  0  0  0  0  2           0  0  0
   -2.0901    2.3690    1.4154 O   0  0  0  0  0  2           0  0  0
    3.4595    3.2000   -1.2452 N   0  0  0  0  0  3           0  0  0
   -4.1617    1.3061    1.4199 N   0  0  2  0  0  3           0  0  0
   -4.2551   -1.0569    1.3359 N   0  0  0  0  0  3           0  0  0
    1.4679   -0.0000    0.0000 N   0  0  1  0  0  3           0  0  0
    6.8194    3.9863   -4.2331 C   0  0  0  0  0  4           0  0  0
    4.9887    3.8375   -2.7552 C   0  0  0  0  0  4           0  0  0
   -2.7647    1.3398    1.4228 C   0  0  0  0  0  4           0  0  0
   -4.8369    0.1007    1.3538 C   0  0  0  0  0  4           0  0  0
    4.3475    2.2078   -1.4088 C   0  0  0  0  0  4           0  0  0
   -2.8831   -1.0925    1.3742 C   0  0  0  0  0  4           0  0  0
    5.3425    2.5589   -2.3605 C   0  0  0  0  0  4           0  0  0
   -2.0952   -0.0000    1.4193 C   0  0  0  0  0  4           0  0  0
    5.6896    4.5973   -3.6866 C   0  0  0  0  0  4           0  0  0
    7.2168    2.6986   -3.8713 C   0  0  0  0  0  4           0  0  0
    6.4828    1.9659   -2.9296 C   0  0  0  0  0  4           0  0  0
   -4.8538    2.5964    1.3481 C   0  0  0  0  0  4           0  0  0
    0.0000    0.0000   -0.0000 C   0  0  0  0  0  4           0  0  0
    2.0086    1.1850    0.6841 C   0  0  0  0  0  4           0  0  0
    1.9712   -0.0757   -1.3792 C   0  0  0  0  0  4           0  0  0
    4.2014    0.9475   -0.6309 C   0  0  1  0  0  4           0  0  0
   -6.3543    0.1042    1.3695 C   0  0  0  0  0  4           0  0  0
   -0.6012    0.0000    1.4115 C   0  0  0  0  0  4           0  0  0
   -2.3317   -2.4942    1.3921 C   0  0  0  0  0  4           0  0  0
   -6.3287    2.5469    1.7001 C   0  0  0  0  0  4           0  0  0
    3.5394    1.1504    0.7398 C   0  0  0  0  0  4           0  0  0
    3.4987   -0.1719   -1.4125 C   0  0  0  0  0  4           0  0  0
   -6.9826    1.4127    0.9374 C   0  0  0  0  0  4           0  0  0
  1  8  1  0     0  0
  2  4  1  0     0  0
  2  9  1  0     0  0
  3 10  2  0     0  0
  4 12  2  0     0  0
  5 10  1  0     0  0
  5 11  1  0     0  0
  5 19  1  0     0  0
  6 11  2  0     0  0
  6 13  1  0     0  0
  7 20  1  0     0  0
  7 21  1  0     0  0
  7 22  1  0     0  0
  8 16  2  0     0  0
  8 17  1  0     0  0
  9 14  2  0     0  0
  9 16  1  0     0  0
 10 15  1  0     0  0
 11 24  1  0     0  0
 12 14  1  0     0  0
 12 23  1  0     0  0
 13 15  2  0     0  0
 13 26  1  0     0  0
 14 18  1  0     0  0
 15 25  1  0     0  0
 17 18  2  0     0  0
 19 27  1  0     0  0
 20 25  1  0     0  0
 21 28  1  0     0  0
 22 29  1  0     0  0
 23 28  1  0     0  0
 23 29  1  0     0  0
 24 30  1  0     0  0
 27 30  1  0     0  0
M  END
> <standard_type>
pIC50

> <# Confs.>
25

> <canonical_smiles>
O=C1C(CCN2CCC(CC2)C3=NOC4=C3C=CC(F)=C4)=C(N=C5N1CCCC5)C

> <standard_relation>
=

> <Publication_ID>
nan

> <predicted_activity_value>
nan

> <actual_activity_value>
0.7772835288524167

> <Compound>
Risperidone

> <standard_units>
uM

> hash
1864929009563516205

$$$$
47
XXILIB    08252103503D 0   0.00000     0.00000

 30 34  0     1  0            999 V2000
    7.5473    4.6608   -5.1353 F   0  0  0  0  0  1           0  0  0
    3.8659    4.2178   -2.0918 O   0  0  0  0  0  2           0  0  0
   -2.0856   -2.3704    1.4162 O   0  0  0  0  0  2           0  0  0
    3.4595    3.2000   -1.2452 N   0  0  0  0  0  3           0  0  0
   -4.1592   -1.3129    1.4192 N   0  0  2  0  0  3           0  0  0
   -4.2591    1.0495    1.3483 N   0  0  0  0  0  3           0  0  0
    1.4679   -0.0000    0.0000 N   0  0  1  0  0  3           0  0  0
    6.8194    3.9863   -4.2331 C   0  0  0  0  0  4           0  0  0
    4.9887    3.8375   -2.7552 C   0  0  0  0  0  4           0  0  0
   -2.7622   -1.3425    1.4228 C   0  0  0  0  0  4           0  0  0
   -4.8377   -0.1092    1.3642 C   0  0  0  0  0  4           0  0  0
    4.3475    2.2078   -1.4088 C   0  0  0  0  0  4           0  0  0
   -2.8867    1.0907    1.3773 C   0  0  0  0  0  4           0  0  0
    5.3425    2.5589   -2.3605 C   0  0  0  0  0  4           0  0  0
   -2.0952   -0.0000    1.4193 C   0  0  0  0  0  4           0  0  0
    5.6896    4.5973   -3.6866 C   0  0  0  0  0  4           0  0  0
    7.2168    2.6986   -3.8713 C   0  0  0  0  0  4           0  0  0
    6.4828    1.9659   -2.9296 C   0  0  0  0  0  4           0  0  0
   -4.8500   -2.6039    1.3369 C   0  0  0  0  0  4           0  0  0
    0.0000    0.0000    0.0000 C   0  0  0  0  0  4           0  0  0
    2.0086    1.1850    0.6841 C   0  0  0  0  0  4           0  0  0
    1.9712   -0.0757   -1.3792 C   0  0  0  0  0  4           0  0  0
    4.2014    0.9475   -0.6309 C   0  0  1  0  0  4           0  0  0
   -6.3550   -0.1157    1.3928 C   0  0  0  0  0  4           0  0  0
   -0.6012    0.0000    1.4115 C   0  0  0  0  0  4           0  0  0
   -2.3524    2.4999    1.3887 C   0  0  0  0  0  4           0  0  0
   -6.3202   -2.5618    1.7103 C   0  0  0  0  0  4           0  0  0
    3.5394    1.1504    0.7398 C   0  0  0  0  0  4           0  0  0
    3.4987   -0.1719   -1.4125 C   0  0  0  0  0  4           0  0  0
   -6.9875   -1.4238    0.9656 C   0  0  0  0  0  4           0  0  0
  1  8  1  0     0  0
  2  4  1  0     0  0
  2  9  1  0     0  0
  3 10  2  0     0  0
  4 12  2  0     0  0
  5 10  1  0     0  0
  5 11  1  0     0  0
  5 19  1  0     0  0
  6 11  2  0     0  0
  6 13  1  0     0  0
  7 20  1  0     0  0
  7 21  1  0     0  0
  7 22  1  0     0  0
  8 16  2  0     0  0
  8 17  1  0     0  0
  9 14  2  0     0  0
  9 16  1  0     0  0
 10 15  1  0     0  0
 11 24  1  0     0  0
 12 14  1  0     0  0
 12 23  1  0     0  0
 13 15  2  0     0  0
 13 26  1  0     0  0
 14 18  1  0     0  0
 15 25  1  0     0  0
 17 18  2  0     0  0
 19 27  1  0     0  0
 20 25  1  0     0  0
 21 28  1  0     0  0
 22 29  1  0     0  0
 23 28  1  0     0  0
 23 29  1  0     0  0
 24 30  1  0     0  0
 27 30  1  0     0  0
M  END
> <standard_type>
pIC50

> <# Confs.>
25

> <canonical_smiles>
O=C1C(CCN2CCC(CC2)C3=NOC4=C3C=CC(F)=C4)=C(N=C5N1CCCC5)C

> <standard_relation>
=

> <Publication_ID>
nan

> <predicted_activity_value>
nan

> <actual_activity_value>
0.7772835288524167

> <Compound>
Risperidone

> <standard_units>
uM

> hash
1864929009563516205

$$$$
47
XXILIB    08252103503D 0   0.00000     0.00000

 30 34  0     1  0            999 V2000
    8.1125   -5.9480   -2.8913 F   0  0  0  0  0  1           0  0  0
    3.7207   -4.1251   -2.2572 O   0  0  0  0  0  2           0  0  0
   -2.0901   -2.3690    1.4231 O   0  0  0  0  0  2           0  0  0
    3.2587   -2.9650   -1.6584 N   0  0  0  0  0  3           0  0  0
   -4.1616   -1.3061    1.4402 N   0  0  2  0  0  3           0  0  0
   -4.2541    1.0569    1.5252 N   0  0  0  0  0  3           0  0  0
    1.4679    0.0000    0.0000 N   0  0  1  0  0  3           0  0  0
    7.2617   -5.0137   -2.4416 C   0  0  0  0  0  4           0  0  0
    5.0752   -4.1764   -2.1663 C   0  0  0  0  0  4           0  0  0
   -2.7647   -1.3398    1.4228 C   0  0  0  0  0  4           0  0  0
   -4.8360   -0.1007    1.5134 C   0  0  0  0  0  4           0  0  0
    4.3475   -2.3240   -1.2076 C   0  0  0  0  0  4           0  0  0
   -2.8826    1.0925    1.4726 C   0  0  0  0  0  4           0  0  0
    5.5322   -3.0513   -1.5020 C   0  0  0  0  0  4           0  0  0
   -2.0952   -0.0000    1.4193 C   0  0  0  0  0  4           0  0  0
    5.8938   -5.1886   -2.6575 C   0  0  0  0  0  4           0  0  0
    7.7729   -3.8995   -1.7750 C   0  0  0  0  0  4           0  0  0
    6.9144   -2.9021   -1.2949 C   0  0  0  0  0  4           0  0  0
   -4.8529   -2.5964    1.5193 C   0  0  0  0  0  4           0  0  0
    0.0000    0.0000    0.0000 C   0  0  0  0  0  4           0  0  0
    2.0086    0.0000   -1.3683 C   0  0  0  0  0  4           0  0  0
    1.9712   -1.1565    0.7552 C   0  0  0  0  0  4           0  0  0
    4.2014   -1.0201   -0.5051 C   0  0  1  0  0  4           0  0  0
   -6.3536   -0.1042    1.5136 C   0  0  0  0  0  4           0  0  0
   -0.6012    0.0000    1.4115 C   0  0  0  0  0  4           0  0  0
   -2.3314    2.4942    1.4489 C   0  0  0  0  0  4           0  0  0
   -6.3314   -2.5469    1.1827 C   0  0  0  0  0  4           0  0  0
    3.5394    0.0655   -1.3662 C   0  0  0  0  0  4           0  0  0
    3.4987   -1.1374    0.8551 C   0  0  0  0  0  4           0  0  0
   -6.9773   -1.4127    1.9522 C   0  0  0  0  0  4           0  0  0
  1  8  1  0     0  0
  2  4  1  0     0  0
  2  9  1  0     0  0
  3 10  2  0     0  0
  4 12  2  0     0  0
  5 10  1  0     0  0
  5 11  1  0     0  0
  5 19  1  0     0  0
  6 11  2  0     0  0
  6 13  1  0     0  0
  7 20  1  0     0  0
  7 21  1  0     0  0
  7 22  1  0     0  0
  8 16  2  0     0  0
  8 17  1  0     0  0
  9 14  2  0     0  0
  9 16  1  0     0  0
 10 15  1  0     0  0
 11 24  1  0     0  0
 12 14  1  0     0  0
 12 23  1  0     0  0
 13 15  2  0     0  0
 13 26  1  0     0  0
 14 18  1  0     0  0
 15 25  1  0     0  0
 17 18  2  0     0  0
 19 27  1  0     0  0
 20 25  1  0     0  0
 21 28  1  0     0  0
 22 29  1  0     0  0
 23 28  1  0     0  0
 23 29  1  0     0  0
 24 30  1  0     0  0
 27 30  1  0     0  0
M  END
> <standard_type>
pIC50

> <# Confs.>
25

> <canonical_smiles>
O=C1C(CCN2CCC(CC2)C3=NOC4=C3C=CC(F)=C4)=C(N=C5N1CCCC5)C

> <standard_relation>
=

> <Publication_ID>
nan

> <predicted_activity_value>
nan

> <actual_activity_value>
0.7772835288524167

> <Compound>
Risperidone

> <standard_units>
uM

> hash
1864929009563516205

$$$$
47
XXILIB    08252103503D 0   0.00000     0.00000

 30 34  0     1  0            999 V2000
    7.7829    6.4034   -2.2681 F   0  0  0  0  0  1           0  0  0
    3.7965    3.7885   -2.8003 O   0  0  0  0  0  2           0  0  0
   -2.0720    2.3768    1.4645 O   0  0  0  0  0  2           0  0  0
    3.3671    2.5984   -2.2370 N   0  0  0  0  0  3           0  0  0
   -4.1395    1.3210    1.3807 N   0  0  2  0  0  3           0  0  0
   -4.2704   -1.0457    1.4156 N   0  0  0  0  0  3           0  0  0
    1.4679   -0.0000    0.0000 N   0  0  1  0  0  3           0  0  0
    7.0079    5.3415   -2.0022 C   0  0  0  0  0  4           0  0  0
    5.0232    4.1075   -2.3115 C   0  0  0  0  0  4           0  0  0
   -2.7512    1.3526    1.4227 C   0  0  0  0  0  4           0  0  0
   -4.8290    0.1197    1.3864 C   0  0  0  0  0  4           0  0  0
    4.3475    2.2078   -1.4088 C   0  0  0  0  0  4           0  0  0
   -2.8946   -1.0892    1.4283 C   0  0  0  0  0  4           0  0  0
    5.4279    3.1307   -1.4181 C   0  0  0  0  0  4           0  0  0
   -2.0952   -0.0000    1.4193 C   0  0  0  0  0  4           0  0  0
    5.7716    5.2332   -2.6411 C   0  0  0  0  0  4           0  0  0
    7.4634    4.3830   -1.0962 C   0  0  0  0  0  4           0  0  0
    6.6792    3.2628   -0.7916 C   0  0  0  0  0  4           0  0  0
   -4.9125    2.5617    1.3856 C   0  0  0  0  0  4           0  0  0
    0.0000    0.0000   -0.0000 C   0  0  0  0  0  4           0  0  0
    2.0086    1.1850    0.6841 C   0  0  0  0  0  4           0  0  0
    1.9712   -0.0757   -1.3792 C   0  0  0  0  0  4           0  0  0
    4.2014    0.9475   -0.6309 C   0  0  1  0  0  4           0  0  0
   -6.3361    0.2353    1.3679 C   0  0  0  0  0  4           0  0  0
   -0.6012    0.0000    1.4115 C   0  0  0  0  0  4           0  0  0
   -2.3619   -2.4989    1.4479 C   0  0  0  0  0  4           0  0  0
   -5.9976    2.5337    0.3139 C   0  0  0  0  0  4           0  0  0
    3.5394    1.1504    0.7398 C   0  0  0  0  0  4           0  0  0
    3.4987   -0.1719   -1.4125 C   0  0  0  0  0  4           0  0  0
   -6.7758    1.2141    0.2856 C   0  0  0  0  0  4           0  0  0
  1  8  1  0     0  0
  2  4  1  0     0  0
  2  9  1  0     0  0
  3 10  2  0     0  0
  4 12  2  0     0  0
  5 10  1  0     0  0
  5 11  1  0     0  0
  5 19  1  0     0  0
  6 11  2  0     0  0
  6 13  1  0     0  0
  7 20  1  0     0  0
  7 21  1  0     0  0
  7 22  1  0     0  0
  8 16  2  0     0  0
  8 17  1  0     0  0
  9 14  2  0     0  0
  9 16  1  0     0  0
 10 15  1  0     0  0
 11 24  1  0     0  0
 12 14  1  0     0  0
 12 23  1  0     0  0
 13 15  2  0     0  0
 13 26  1  0     0  0
 14 18  1  0     0  0
 15 25  1  0     0  0
 17 18  2  0     0  0
 19 27  1  0     0  0
 20 25  1  0     0  0
 21 28  1  0     0  0
 22 29  1  0     0  0
 23 28  1  0     0  0
 23 29  1  0     0  0
 24 30  1  0     0  0
 27 30  1  0     0  0
M  END
> <standard_type>
pIC50

> <# Confs.>
25

> <canonical_smiles>
O=C1C(CCN2CCC(CC2)C3=NOC4=C3C=CC(F)=C4)=C(N=C5N1CCCC5)C

> <standard_relation>
=

> <Publication_ID>
nan

> <predicted_activity_value>
nan

> <actual_activity_value>
0.7772835288524167

> <Compound>
Risperidone

> <standard_units>
uM

> hash
1864929009563516205

$$$$
47
XXILIB    08252103503D 0   0.00000     0.00000

 30 34  0     1  0            999 V2000
   10.0749   -3.6222   -2.5076 F   0  0  0  0  0  1           0  0  0
    7.5902   -0.2088   -0.2301 O   0  0  0  0  0  2           0  0  0
   -2.0856    2.3704    1.4222 O   0  0  0  0  0  2           0  0  0
    6.2344    0.0124   -0.0545 N   0  0  0  0  0  3           0  0  0
   -4.1591    1.3129    1.4410 N   0  0  2  0  0  3           0  0  0
   -4.2582   -1.0495    1.5129 N   0  0  0  0  0  3           0  0  0
    1.4676    0.0000    0.0000 N   0  0  1  0  0  3           0  0  0
    8.9331   -3.0410   -2.1108 C   0  0  0  0  0  4           0  0  0
    7.7763   -1.3322   -0.9708 C   0  0  0  0  0  4           0  0  0
   -2.7622    1.3425    1.4228 C   0  0  0  0  0  4           0  0  0
   -4.8370    0.1092    1.5030 C   0  0  0  0  0  4           0  0  0
    5.6116   -0.9868   -0.6974 C   0  0  0  0  0  4           0  0  0
   -2.8862   -1.0907    1.4695 C   0  0  0  0  0  4           0  0  0
    6.5451   -1.8718   -1.3010 C   0  0  0  0  0  4           0  0  0
   -2.0952   -0.0000    1.4193 C   0  0  0  0  0  4           0  0  0
    9.0012   -1.8739   -1.3481 C   0  0  0  0  0  4           0  0  0
    7.7177   -3.6230   -2.4729 C   0  0  0  0  0  4           0  0  0
    6.5056   -3.0456   -2.0732 C   0  0  0  0  0  4           0  0  0
   -4.8490    2.6039    1.5304 C   0  0  0  0  0  4           0  0  0
    0.0000    0.0000   -0.0000 C   0  0  0  0  0  4           0  0  0
    2.0106   -1.1853    0.6843 C   0  0  0  0  0  4           0  0  0
    1.9691    0.0811   -1.3812 C   0  0  0  0  0  4           0  0  0
    4.1247   -1.0509   -0.7026 C   0  0  1  0  0  4           0  0  0
   -6.3545    0.1157    1.4903 C   0  0  0  0  0  4           0  0  0
   -0.6012    0.0000    1.4115 C   0  0  0  0  0  4           0  0  0
   -2.3521   -2.4999    1.4525 C   0  0  0  0  0  4           0  0  0
   -6.3230    2.5618    1.1724 C   0  0  0  0  0  4           0  0  0
    3.5419   -1.1604    0.7132 C   0  0  0  0  0  4           0  0  0
    3.4968    0.1527   -1.4180 C   0  0  0  0  0  4           0  0  0
   -6.9825    1.4238    1.9240 C   0  0  0  0  0  4           0  0  0
  1  8  1  0     0  0
  2  4  1  0     0  0
  2  9  1  0     0  0
  3 10  2  0     0  0
  4 12  2  0     0  0
  5 10  1  0     0  0
  5 11  1  0     0  0
  5 19  1  0     0  0
  6 11  2  0     0  0
  6 13  1  0     0  0
  7 20  1  0     0  0
  7 21  1  0     0  0
  7 22  1  0     0  0
  8 16  2  0     0  0
  8 17  1  0     0  0
  9 14  2  0     0  0
  9 16  1  0     0  0
 10 15  1  0     0  0
 11 24  1  0     0  0
 12 14  1  0     0  0
 12 23  1  0     0  0
 13 15  2  0     0  0
 13 26  1  0     0  0
 14 18  1  0     0  0
 15 25  1  0     0  0
 17 18  2  0     0  0
 19 27  1  0     0  0
 20 25  1  0     0  0
 21 28  1  0     0  0
 22 29  1  0     0  0
 23 28  1  0     0  0
 23 29  1  0     0  0
 24 30  1  0     0  0
 27 30  1  0     0  0
M  END
> <standard_type>
pIC50

> <# Confs.>
25

> <canonical_smiles>
O=C1C(CCN2CCC(CC2)C3=NOC4=C3C=CC(F)=C4)=C(N=C5N1CCCC5)C

> <standard_relation>
=

> <Publication_ID>
nan

> <predicted_activity_value>
nan

> <actual_activity_value>
0.7772835288524167

> <Compound>
Risperidone

> <standard_units>
uM

> hash
1864929009563516205

$$$$
47
XXILIB    08252103503D 0   0.00000     0.00000

 30 34  0     1  0            999 V2000
   -1.5898    6.9492   -4.2826 F   0  0  0  0  0  1           0  0  0
    2.8558    5.3151   -3.5216 O   0  0  0  0  0  2           0  0  0
   -2.0856    2.3704    1.4222 O   0  0  0  0  0  2           0  0  0
    3.3532    4.2188   -2.8371 N   0  0  0  0  0  3           0  0  0
   -4.1591    1.3129    1.4410 N   0  0  2  0  0  3           0  0  0
   -4.2582   -1.0495    1.5129 N   0  0  0  0  0  3           0  0  0
    1.4652    0.0000    0.0000 N   0  0  1  0  0  3           0  0  0
   -0.7107    6.0784   -3.7649 C   0  0  0  0  0  4           0  0  0
    1.5004    5.3318   -3.4317 C   0  0  0  0  0  4           0  0  0
   -2.7622    1.3425    1.4228 C   0  0  0  0  0  4           0  0  0
   -4.8370    0.1092    1.5030 C   0  0  0  0  0  4           0  0  0
    2.2846    3.5812   -2.3360 C   0  0  0  0  0  4           0  0  0
   -2.8862   -1.0907    1.4695 C   0  0  0  0  0  4           0  0  0
    1.0782    4.2473   -2.6823 C   0  0  0  0  0  4           0  0  0
   -2.0952   -0.0000    1.4193 C   0  0  0  0  0  4           0  0  0
    0.6512    6.2781   -3.9968 C   0  0  0  0  0  4           0  0  0
   -1.1875    5.0034   -3.0140 C   0  0  0  0  0  4           0  0  0
   -0.2989    4.0723   -2.4611 C   0  0  0  0  0  4           0  0  0
   -4.8490    2.6039    1.5304 C   0  0  0  0  0  4           0  0  0
    0.0000    0.0000   -0.0000 C   0  0  0  0  0  4           0  0  0
    2.0546    1.1669    0.6737 C   0  0  0  0  0  4           0  0  0
    2.0158   -0.1455   -1.3551 C   0  0  0  0  0  4           0  0  0
    2.4706    2.3399   -1.5362 C   0  0  1  0  0  4           0  0  0
   -6.3545    0.1157    1.4903 C   0  0  0  0  0  4           0  0  0
   -0.6012    0.0000    1.4115 C   0  0  0  0  0  4           0  0  0
   -2.3521   -2.4999    1.4525 C   0  0  0  0  0  4           0  0  0
   -6.3230    2.5618    1.1724 C   0  0  0  0  0  4           0  0  0
    1.9193    2.4777   -0.1081 C   0  0  0  0  0  4           0  0  0
    1.8686    1.1056   -2.2260 C   0  0  0  0  0  4           0  0  0
   -6.9825    1.4238    1.9240 C   0  0  0  0  0  4           0  0  0
  1  8  1  0     0  0
  2  4  1  0     0  0
  2  9  1  0     0  0
  3 10  2  0     0  0
  4 12  2  0     0  0
  5 10  1  0     0  0
  5 11  1  0     0  0
  5 19  1  0     0  0
  6 11  2  0     0  0
  6 13  1  0     0  0
  7 20  1  0     0  0
  7 21  1  0     0  0
  7 22  1  0     0  0
  8 16  2  0     0  0
  8 17  1  0     0  0
  9 14  2  0     0  0
  9 16  1  0     0  0
 10 15  1  0     0  0
 11 24  1  0     0  0
 12 14  1  0     0  0
 12 23  1  0     0  0
 13 15  2  0     0  0
 13 26  1  0     0  0
 14 18  1  0     0  0
 15 25  1  0     0  0
 17 18  2  0     0  0
 19 27  1  0     0  0
 20 25  1  0     0  0
 21 28  1  0     0  0
 22 29  1  0     0  0
 23 28  1  0     0  0
 23 29  1  0     0  0
 24 30  1  0     0  0
 27 30  1  0     0  0
M  END
> <standard_type>
pIC50

> <# Confs.>
25

> <canonical_smiles>
O=C1C(CCN2CCC(CC2)C3=NOC4=C3C=CC(F)=C4)=C(N=C5N1CCCC5)C

> <standard_relation>
=

> <Publication_ID>
nan

> <predicted_activity_value>
nan

> <actual_activity_value>
0.7772835288524167

> <Compound>
Risperidone

> <standard_units>
uM

> hash
1864929009563516205

$$$$
47
XXILIB    08252103503D 0   0.00000     0.00000

 30 34  0     1  0            999 V2000
   10.0749    3.9828   -1.8831 F   0  0  0  0  0  1           0  0  0
    7.5902    0.3036   -0.0658 O   0  0  0  0  0  2           0  0  0
   -2.0856    2.3704    1.4222 O   0  0  0  0  0  2           0  0  0
    6.2344    0.0410    0.0380 N   0  0  0  0  0  3           0  0  0
   -4.1591    1.3129    1.4410 N   0  0  2  0  0  3           0  0  0
   -4.2582   -1.0495    1.5129 N   0  0  0  0  0  3           0  0  0
    1.4676   -0.0000   -0.0000 N   0  0  1  0  0  3           0  0  0
    8.9331    3.3485   -1.5782 C   0  0  0  0  0  4           0  0  0
    7.7763    1.5069   -0.6683 C   0  0  0  0  0  4           0  0  0
   -2.7622    1.3425    1.4228 C   0  0  0  0  0  4           0  0  0
   -4.8370    0.1092    1.5030 C   0  0  0  0  0  4           0  0  0
    5.6116    1.0974   -0.5059 C   0  0  0  0  0  4           0  0  0
   -2.8862   -1.0907    1.4695 C   0  0  0  0  0  4           0  0  0
    6.5451    2.0626   -0.9705 C   0  0  0  0  0  4           0  0  0
   -2.0952   -0.0000    1.4193 C   0  0  0  0  0  4           0  0  0
    9.0012    2.1044   -0.9488 C   0  0  0  0  0  4           0  0  0
    7.7177    3.9531   -1.9012 C   0  0  0  0  0  4           0  0  0
    6.5056    3.3183   -1.6010 C   0  0  0  0  0  4           0  0  0
   -4.8490    2.6039    1.5304 C   0  0  0  0  0  4           0  0  0
    0.0000    0.0000   -0.0000 C   0  0  0  0  0  4           0  0  0
    2.0106    0.0000   -1.3686 C   0  0  0  0  0  4           0  0  0
    1.9691    1.1555    0.7609 C   0  0  0  0  0  4           0  0  0
    4.1247    1.1339   -0.5588 C   0  0  1  0  0  4           0  0  0
   -6.3545    0.1157    1.4903 C   0  0  0  0  0  4           0  0  0
   -0.6012    0.0000    1.4115 C   0  0  0  0  0  4           0  0  0
   -2.3521   -2.4999    1.4525 C   0  0  0  0  0  4           0  0  0
   -6.3230    2.5618    1.1724 C   0  0  0  0  0  4           0  0  0
    3.5419   -0.0374   -1.3615 C   0  0  0  0  0  4           0  0  0
    3.4968    1.1516    0.8412 C   0  0  0  0  0  4           0  0  0
   -6.9825    1.4238    1.9240 C   0  0  0  0  0  4           0  0  0
  1  8  1  0     0  0
  2  4  1  0     0  0
  2  9  1  0     0  0
  3 10  2  0     0  0
  4 12  2  0     0  0
  5 10  1  0     0  0
  5 11  1  0     0  0
  5 19  1  0     0  0
  6 11  2  0     0  0
  6 13  1  0     0  0
  7 20  1  0     0  0
  7 21  1  0     0  0
  7 22  1  0     0  0
  8 16  2  0     0  0
  8 17  1  0     0  0
  9 14  2  0     0  0
  9 16  1  0     0  0
 10 15  1  0     0  0
 11 24  1  0     0  0
 12 14  1  0     0  0
 12 23  1  0     0  0
 13 15  2  0     0  0
 13 26  1  0     0  0
 14 18  1  0     0  0
 15 25  1  0     0  0
 17 18  2  0     0  0
 19 27  1  0     0  0
 20 25  1  0     0  0
 21 28  1  0     0  0
 22 29  1  0     0  0
 23 28  1  0     0  0
 23 29  1  0     0  0
 24 30  1  0     0  0
 27 30  1  0     0  0
M  END
> <standard_type>
pIC50

> <# Confs.>
25

> <canonical_smiles>
O=C1C(CCN2CCC(CC2)C3=NOC4=C3C=CC(F)=C4)=C(N=C5N1CCCC5)C

> <standard_relation>
=

> <Publication_ID>
nan

> <predicted_activity_value>
nan

> <actual_activity_value>
0.7772835288524167

> <Compound>
Risperidone

> <standard_units>
uM

> hash
1864929009563516205

$$$$
47
XXILIB    08252103503D 0   0.00000     0.00000

 30 34  0     1  0            999 V2000
    7.7829    6.4034   -2.2681 F   0  0  0  0  0  1           0  0  0
    3.7965    3.7885   -2.8003 O   0  0  0  0  0  2           0  0  0
   -2.0725   -2.3768    1.3738 O   0  0  0  0  0  2           0  0  0
    3.3671    2.5984   -2.2370 N   0  0  0  0  0  3           0  0  0
   -4.1390   -1.3210    1.4792 N   0  0  2  0  0  3           0  0  0
   -4.2702    1.0457    1.4457 N   0  0  0  0  0  3           0  0  0
    1.4679   -0.0000    0.0000 N   0  0  1  0  0  3           0  0  0
    7.0079    5.3415   -2.0022 C   0  0  0  0  0  4           0  0  0
    5.0232    4.1075   -2.3115 C   0  0  0  0  0  4           0  0  0
   -2.7512   -1.3526    1.4227 C   0  0  0  0  0  4           0  0  0
   -4.8285   -0.1197    1.4808 C   0  0  0  0  0  4           0  0  0
    4.3475    2.2078   -1.4088 C   0  0  0  0  0  4           0  0  0
   -2.8946    1.0892    1.4186 C   0  0  0  0  0  4           0  0  0
    5.4279    3.1307   -1.4181 C   0  0  0  0  0  4           0  0  0
   -2.0952   -0.0000    1.4193 C   0  0  0  0  0  4           0  0  0
    5.7716    5.2332   -2.6411 C   0  0  0  0  0  4           0  0  0
    7.4634    4.3830   -1.0962 C   0  0  0  0  0  4           0  0  0
    6.6792    3.2628   -0.7916 C   0  0  0  0  0  4           0  0  0
   -4.9120   -2.5617    1.4824 C   0  0  0  0  0  4           0  0  0
    0.0000    0.0000    0.0000 C   0  0  0  0  0  4           0  0  0
    2.0086    1.1850    0.6841 C   0  0  0  0  0  4           0  0  0
    1.9712   -0.0757   -1.3792 C   0  0  0  0  0  4           0  0  0
    4.2014    0.9475   -0.6309 C   0  0  1  0  0  4           0  0  0
   -6.3354   -0.2353    1.5150 C   0  0  0  0  0  4           0  0  0
   -0.6012    0.0000    1.4115 C   0  0  0  0  0  4           0  0  0
   -2.3621    2.4989    1.3935 C   0  0  0  0  0  4           0  0  0
   -5.9858   -2.5337    2.5654 C   0  0  0  0  0  4           0  0  0
    3.5394    1.1504    0.7398 C   0  0  0  0  0  4           0  0  0
    3.4987   -0.1719   -1.4125 C   0  0  0  0  0  4           0  0  0
   -6.7637   -1.2141    2.6018 C   0  0  0  0  0  4           0  0  0
  1  8  1  0     0  0
  2  4  1  0     0  0
  2  9  1  0     0  0
  3 10  2  0     0  0
  4 12  2  0     0  0
  5 10  1  0     0  0
  5 11  1  0     0  0
  5 19  1  0     0  0
  6 11  2  0     0  0
  6 13  1  0     0  0
  7 20  1  0     0  0
  7 21  1  0     0  0
  7 22  1  0     0  0
  8 16  2  0     0  0
  8 17  1  0     0  0
  9 14  2  0     0  0
  9 16  1  0     0  0
 10 15  1  0     0  0
 11 24  1  0     0  0
 12 14  1  0     0  0
 12 23  1  0     0  0
 13 15  2  0     0  0
 13 26  1  0     0  0
 14 18  1  0     0  0
 15 25  1  0     0  0
 17 18  2  0     0  0
 19 27  1  0     0  0
 20 25  1  0     0  0
 21 28  1  0     0  0
 22 29  1  0     0  0
 23 28  1  0     0  0
 23 29  1  0     0  0
 24 30  1  0     0  0
 27 30  1  0     0  0
M  END
> <standard_type>
pIC50

> <# Confs.>
25

> <canonical_smiles>
O=C1C(CCN2CCC(CC2)C3=NOC4=C3C=CC(F)=C4)=C(N=C5N1CCCC5)C

> <standard_relation>
=

> <Publication_ID>
nan

> <predicted_activity_value>
nan

> <actual_activity_value>
0.7772835288524167

> <Compound>
Risperidone

> <standard_units>
uM

> hash
1864929009563516205

$$$$
47
XXILIB    08252103503D 0   0.00000     0.00000

 30 34  0     1  0            999 V2000
    9.8189   -2.0008    1.1802 F   0  0  0  0  0  1           0  0  0
    7.6530    1.7925   -0.8028 O   0  0  0  0  0  2           0  0  0
   -2.0901   -2.3690    1.4231 O   0  0  0  0  0  2           0  0  0
    6.3225    2.1210   -1.0022 N   0  0  0  0  0  3           0  0  0
   -4.1616   -1.3061    1.4402 N   0  0  2  0  0  3           0  0  0
   -4.2541    1.0569    1.5252 N   0  0  0  0  0  3           0  0  0
    1.4676   -0.0000   -0.0000 N   0  0  1  0  0  3           0  0  0
    8.7342   -1.3119    0.7959 C   0  0  0  0  0  4           0  0  0
    7.7366    0.5826   -0.1907 C   0  0  0  0  0  4           0  0  0
   -2.7647   -1.3398    1.4228 C   0  0  0  0  0  4           0  0  0
   -4.8360   -0.1007    1.5134 C   0  0  0  0  0  4           0  0  0
    5.6116    1.0974   -0.5059 C   0  0  0  0  0  4           0  0  0
   -2.8826    1.0925    1.4726 C   0  0  0  0  0  4           0  0  0
    6.4613    0.0884    0.0223 C   0  0  0  0  0  4           0  0  0
   -2.0952   -0.0000    1.4193 C   0  0  0  0  0  4           0  0  0
    8.9077   -0.0737    0.1752 C   0  0  0  0  0  4           0  0  0
    7.4707   -1.8556    1.0307 C   0  0  0  0  0  4           0  0  0
    6.3156   -1.1627    0.6462 C   0  0  0  0  0  4           0  0  0
   -4.8529   -2.5964    1.5193 C   0  0  0  0  0  4           0  0  0
    0.0000    0.0000    0.0000 C   0  0  0  0  0  4           0  0  0
    2.0106    0.0000   -1.3686 C   0  0  0  0  0  4           0  0  0
    1.9691    1.1555    0.7609 C   0  0  0  0  0  4           0  0  0
    4.1247    1.1339   -0.5588 C   0  0  1  0  0  4           0  0  0
   -6.3536   -0.1042    1.5136 C   0  0  0  0  0  4           0  0  0
   -0.6012    0.0000    1.4115 C   0  0  0  0  0  4           0  0  0
   -2.3314    2.4942    1.4489 C   0  0  0  0  0  4           0  0  0
   -6.3314   -2.5469    1.1827 C   0  0  0  0  0  4           0  0  0
    3.5419   -0.0374   -1.3615 C   0  0  0  0  0  4           0  0  0
    3.4968    1.1516    0.8412 C   0  0  0  0  0  4           0  0  0
   -6.9773   -1.4127    1.9522 C   0  0  0  0  0  4           0  0  0
  1  8  1  0     0  0
  2  4  1  0     0  0
  2  9  1  0     0  0
  3 10  2  0     0  0
  4 12  2  0     0  0
  5 10  1  0     0  0
  5 11  1  0     0  0
  5 19  1  0     0  0
  6 11  2  0     0  0
  6 13  1  0     0  0
  7 20  1  0     0  0
  7 21  1  0     0  0
  7 22  1  0     0  0
  8 16  2  0     0  0
  8 17  1  0     0  0
  9 14  2  0     0  0
  9 16  1  0     0  0
 10 15  1  0     0  0
 11 24  1  0     0  0
 12 14  1  0     0  0
 12 23  1  0     0  0
 13 15  2  0     0  0
 13 26  1  0     0  0
 14 18  1  0     0  0
 15 25  1  0     0  0
 17 18  2  0     0  0
 19 27  1  0     0  0
 20 25  1  0     0  0
 21 28  1  0     0  0
 22 29  1  0     0  0
 23 28  1  0     0  0
 23 29  1  0     0  0
 24 30  1  0     0  0
 27 30  1  0     0  0
M  END
> <standard_type>
pIC50

> <# Confs.>
25

> <canonical_smiles>
O=C1C(CCN2CCC(CC2)C3=NOC4=C3C=CC(F)=C4)=C(N=C5N1CCCC5)C

> <standard_relation>
=

> <Publication_ID>
nan

> <predicted_activity_value>
nan

> <actual_activity_value>
0.7772835288524167

> <Compound>
Risperidone

> <standard_units>
uM

> hash
1864929009563516205

$$$$
47
XXILIB    08252103503D 0   0.00000     0.00000

 30 34  0     1  0            999 V2000
    8.1125   -5.9480   -2.8913 F   0  0  0  0  0  1           0  0  0
    3.7207   -4.1251   -2.2572 O   0  0  0  0  0  2           0  0  0
   -2.0856    2.3704    1.4222 O   0  0  0  0  0  2           0  0  0
    3.2587   -2.9650   -1.6584 N   0  0  0  0  0  3           0  0  0
   -4.1591    1.3129    1.4410 N   0  0  2  0  0  3           0  0  0
   -4.2582   -1.0495    1.5129 N   0  0  0  0  0  3           0  0  0
    1.4679    0.0000    0.0000 N   0  0  1  0  0  3           0  0  0
    7.2617   -5.0137   -2.4416 C   0  0  0  0  0  4           0  0  0
    5.0752   -4.1764   -2.1663 C   0  0  0  0  0  4           0  0  0
   -2.7622    1.3425    1.4228 C   0  0  0  0  0  4           0  0  0
   -4.8370    0.1092    1.5030 C   0  0  0  0  0  4           0  0  0
    4.3475   -2.3240   -1.2076 C   0  0  0  0  0  4           0  0  0
   -2.8862   -1.0907    1.4695 C   0  0  0  0  0  4           0  0  0
    5.5322   -3.0513   -1.5020 C   0  0  0  0  0  4           0  0  0
   -2.0952   -0.0000    1.4193 C   0  0  0  0  0  4           0  0  0
    5.8938   -5.1886   -2.6575 C   0  0  0  0  0  4           0  0  0
    7.7729   -3.8995   -1.7750 C   0  0  0  0  0  4           0  0  0
    6.9144   -2.9021   -1.2949 C   0  0  0  0  0  4           0  0  0
   -4.8490    2.6039    1.5304 C   0  0  0  0  0  4           0  0  0
    0.0000    0.0000   -0.0000 C   0  0  0  0  0  4           0  0  0
    2.0086    0.0000   -1.3683 C   0  0  0  0  0  4           0  0  0
    1.9712   -1.1565    0.7552 C   0  0  0  0  0  4           0  0  0
    4.2014   -1.0201   -0.5051 C   0  0  1  0  0  4           0  0  0
   -6.3545    0.1157    1.4903 C   0  0  0  0  0  4           0  0  0
   -0.6012    0.0000    1.4115 C   0  0  0  0  0  4           0  0  0
   -2.3521   -2.4999    1.4525 C   0  0  0  0  0  4           0  0  0
   -6.3230    2.5618    1.1724 C   0  0  0  0  0  4           0  0  0
    3.5394    0.0655   -1.3662 C   0  0  0  0  0  4           0  0  0
    3.4987   -1.1374    0.8551 C   0  0  0  0  0  4           0  0  0
   -6.9825    1.4238    1.9240 C   0  0  0  0  0  4           0  0  0
  1  8  1  0     0  0
  2  4  1  0     0  0
  2  9  1  0     0  0
  3 10  2  0     0  0
  4 12  2  0     0  0
  5 10  1  0     0  0
  5 11  1  0     0  0
  5 19  1  0     0  0
  6 11  2  0     0  0
  6 13  1  0     0  0
  7 20  1  0     0  0
  7 21  1  0     0  0
  7 22  1  0     0  0
  8 16  2  0     0  0
  8 17  1  0     0  0
  9 14  2  0     0  0
  9 16  1  0     0  0
 10 15  1  0     0  0
 11 24  1  0     0  0
 12 14  1  0     0  0
 12 23  1  0     0  0
 13 15  2  0     0  0
 13 26  1  0     0  0
 14 18  1  0     0  0
 15 25  1  0     0  0
 17 18  2  0     0  0
 19 27  1  0     0  0
 20 25  1  0     0  0
 21 28  1  0     0  0
 22 29  1  0     0  0
 23 28  1  0     0  0
 23 29  1  0     0  0
 24 30  1  0     0  0
 27 30  1  0     0  0
M  END
> <standard_type>
pIC50

> <# Confs.>
25

> <canonical_smiles>
O=C1C(CCN2CCC(CC2)C3=NOC4=C3C=CC(F)=C4)=C(N=C5N1CCCC5)C

> <standard_relation>
=

> <Publication_ID>
nan

> <predicted_activity_value>
nan

> <actual_activity_value>
0.7772835288524167

> <Compound>
Risperidone

> <standard_units>
uM

> hash
1864929009563516205

$$$$
47
XXILIB    08252103503D 0   0.00000     0.00000

 30 34  0     1  0            999 V2000
   10.0706   -3.7906    0.8517 F   0  0  0  0  0  1           0  0  0
    7.5908   -0.1560   -1.0596 O   0  0  0  0  0  2           0  0  0
   -2.0901   -2.3690    1.4231 O   0  0  0  0  0  2           0  0  0
    6.2354    0.0816   -1.2161 N   0  0  0  0  0  3           0  0  0
   -4.1616   -1.3061    1.4402 N   0  0  2  0  0  3           0  0  0
   -4.2541    1.0569    1.5252 N   0  0  0  0  0  3           0  0  0
    1.4676    0.0000    0.0000 N   0  0  1  0  0  3           0  0  0
    8.9300   -3.1772    0.5027 C   0  0  0  0  0  4           0  0  0
    7.7756   -1.3563   -0.4508 C   0  0  0  0  0  4           0  0  0
   -2.7647   -1.3398    1.4228 C   0  0  0  0  0  4           0  0  0
   -4.8360   -0.1007    1.5134 C   0  0  0  0  0  4           0  0  0
    5.6116   -0.9868   -0.6974 C   0  0  0  0  0  4           0  0  0
   -2.8826    1.0925    1.4726 C   0  0  0  0  0  4           0  0  0
    6.5440   -1.9351   -0.1972 C   0  0  0  0  0  4           0  0  0
   -2.0952   -0.0000    1.4193 C   0  0  0  0  0  4           0  0  0
    8.9994   -1.9313   -0.1230 C   0  0  0  0  0  4           0  0  0
    7.7143   -3.8046    0.7777 C   0  0  0  0  0  4           0  0  0
    6.5033   -3.1920    0.4307 C   0  0  0  0  0  4           0  0  0
   -4.8529   -2.5964    1.5193 C   0  0  0  0  0  4           0  0  0
    0.0000    0.0000    0.0000 C   0  0  0  0  0  4           0  0  0
    2.0106   -1.1853    0.6843 C   0  0  0  0  0  4           0  0  0
    1.9691    0.0811   -1.3812 C   0  0  0  0  0  4           0  0  0
    4.1247   -1.0509   -0.7026 C   0  0  1  0  0  4           0  0  0
   -6.3536   -0.1042    1.5136 C   0  0  0  0  0  4           0  0  0
   -0.6012    0.0000    1.4115 C   0  0  0  0  0  4           0  0  0
   -2.3314    2.4942    1.4489 C   0  0  0  0  0  4           0  0  0
   -6.3314   -2.5469    1.1827 C   0  0  0  0  0  4           0  0  0
    3.5419   -1.1604    0.7132 C   0  0  0  0  0  4           0  0  0
    3.4968    0.1527   -1.4180 C   0  0  0  0  0  4           0  0  0
   -6.9773   -1.4127    1.9522 C   0  0  0  0  0  4           0  0  0
  1  8  1  0     0  0
  2  4  1  0     0  0
  2  9  1  0     0  0
  3 10  2  0     0  0
  4 12  2  0     0  0
  5 10  1  0     0  0
  5 11  1  0     0  0
  5 19  1  0     0  0
  6 11  2  0     0  0
  6 13  1  0     0  0
  7 20  1  0     0  0
  7 21  1  0     0  0
  7 22  1  0     0  0
  8 16  2  0     0  0
  8 17  1  0     0  0
  9 14  2  0     0  0
  9 16  1  0     0  0
 10 15  1  0     0  0
 11 24  1  0     0  0
 12 14  1  0     0  0
 12 23  1  0     0  0
 13 15  2  0     0  0
 13 26  1  0     0  0
 14 18  1  0     0  0
 15 25  1  0     0  0
 17 18  2  0     0  0
 19 27  1  0     0  0
 20 25  1  0     0  0
 21 28  1  0     0  0
 22 29  1  0     0  0
 23 28  1  0     0  0
 23 29  1  0     0  0
 24 30  1  0     0  0
 27 30  1  0     0  0
M  END
> <standard_type>
pIC50

> <# Confs.>
25

> <canonical_smiles>
O=C1C(CCN2CCC(CC2)C3=NOC4=C3C=CC(F)=C4)=C(N=C5N1CCCC5)C

> <standard_relation>
=

> <Publication_ID>
nan

> <predicted_activity_value>
nan

> <actual_activity_value>
0.7772835288524167

> <Compound>
Risperidone

> <standard_units>
uM

> hash
1864929009563516205

$$$$
47
XXILIB    08252103503D 0   0.00000     0.00000

 30 34  0     1  0            999 V2000
    6.6470    7.1893   -1.2082 F   0  0  0  0  0  1           0  0  0
    4.0728    3.5927   -3.0656 O   0  0  0  0  0  2           0  0  0
   -2.0901   -2.3690    1.4231 O   0  0  0  0  0  2           0  0  0
    3.7558    2.3250   -2.6071 N   0  0  0  0  0  3           0  0  0
   -4.1616   -1.3061    1.4402 N   0  0  2  0  0  3           0  0  0
   -4.2541    1.0569    1.5252 N   0  0  0  0  0  3           0  0  0
    1.4679   -0.0000    0.0000 N   0  0  1  0  0  3           0  0  0
    6.1262    5.9537   -1.1759 C   0  0  0  0  0  4           0  0  0
    4.8466    4.2288   -2.1480 C   0  0  0  0  0  4           0  0  0
   -2.7647   -1.3398    1.4228 C   0  0  0  0  0  4           0  0  0
   -4.8360   -0.1007    1.5134 C   0  0  0  0  0  4           0  0  0
    4.3475    2.2078   -1.4088 C   0  0  0  0  0  4           0  0  0
   -2.8826    1.0925    1.4726 C   0  0  0  0  0  4           0  0  0
    5.0576    3.3902   -1.0672 C   0  0  0  0  0  4           0  0  0
   -2.0952   -0.0000    1.4193 C   0  0  0  0  0  4           0  0  0
    5.3559    5.5192   -2.2558 C   0  0  0  0  0  4           0  0  0
    6.3711    5.1464   -0.0645 C   0  0  0  0  0  4           0  0  0
    5.8403    3.8519    0.0052 C   0  0  0  0  0  4           0  0  0
   -4.8529   -2.5964    1.5193 C   0  0  0  0  0  4           0  0  0
    0.0000    0.0000    0.0000 C   0  0  0  0  0  4           0  0  0
    2.0086    1.1850    0.6841 C   0  0  0  0  0  4           0  0  0
    1.9712   -0.0757   -1.3792 C   0  0  0  0  0  4           0  0  0
    4.2014    0.9475   -0.6309 C   0  0  1  0  0  4           0  0  0
   -6.3536   -0.1042    1.5136 C   0  0  0  0  0  4           0  0  0
   -0.6012    0.0000    1.4115 C   0  0  0  0  0  4           0  0  0
   -2.3314    2.4942    1.4489 C   0  0  0  0  0  4           0  0  0
   -6.3314   -2.5469    1.1827 C   0  0  0  0  0  4           0  0  0
    3.5394    1.1504    0.7398 C   0  0  0  0  0  4           0  0  0
    3.4987   -0.1719   -1.4125 C   0  0  0  0  0  4           0  0  0
   -6.9773   -1.4127    1.9522 C   0  0  0  0  0  4           0  0  0
  1  8  1  0     0  0
  2  4  1  0     0  0
  2  9  1  0     0  0
  3 10  2  0     0  0
  4 12  2  0     0  0
  5 10  1  0     0  0
  5 11  1  0     0  0
  5 19  1  0     0  0
  6 11  2  0     0  0
  6 13  1  0     0  0
  7 20  1  0     0  0
  7 21  1  0     0  0
  7 22  1  0     0  0
  8 16  2  0     0  0
  8 17  1  0     0  0
  9 14  2  0     0  0
  9 16  1  0     0  0
 10 15  1  0     0  0
 11 24  1  0     0  0
 12 14  1  0     0  0
 12 23  1  0     0  0
 13 15  2  0     0  0
 13 26  1  0     0  0
 14 18  1  0     0  0
 15 25  1  0     0  0
 17 18  2  0     0  0
 19 27  1  0     0  0
 20 25  1  0     0  0
 21 28  1  0     0  0
 22 29  1  0     0  0
 23 28  1  0     0  0
 23 29  1  0     0  0
 24 30  1  0     0  0
 27 30  1  0     0  0
M  END
> <standard_type>
pIC50

> <# Confs.>
25

> <canonical_smiles>
O=C1C(CCN2CCC(CC2)C3=NOC4=C3C=CC(F)=C4)=C(N=C5N1CCCC5)C

> <standard_relation>
=

> <Publication_ID>
nan

> <predicted_activity_value>
nan

> <actual_activity_value>
0.7772835288524167

> <Compound>
Risperidone

> <standard_units>
uM

> hash
1864929009563516205

$$$$
47
XXILIB    08252103503D 0   0.00000     0.00000

 30 34  0     1  0            999 V2000
    9.9513   -0.6315   -4.0417 F   0  0  0  0  0  1           0  0  0
    7.6210   -0.9529    0.1390 O   0  0  0  0  0  2           0  0  0
   -2.0901   -2.3690    1.4231 O   0  0  0  0  0  2           0  0  0
    6.2774   -1.0272    0.4665 N   0  0  0  0  0  3           0  0  0
   -4.1616   -1.3061    1.4402 N   0  0  2  0  0  3           0  0  0
   -4.2541    1.0569    1.5252 N   0  0  0  0  0  3           0  0  0
    1.4676    0.0000    0.0000 N   0  0  1  0  0  3           0  0  0
    8.8368   -0.7116   -3.2998 C   0  0  0  0  0  4           0  0  0
    7.7572   -0.8702   -1.2101 C   0  0  0  0  0  4           0  0  0
   -2.7647   -1.3398    1.4228 C   0  0  0  0  0  4           0  0  0
   -4.8360   -0.1007    1.5134 C   0  0  0  0  0  4           0  0  0
    5.6116   -0.9868   -0.6974 C   0  0  0  0  0  4           0  0  0
   -2.8826    1.0925    1.4726 C   0  0  0  0  0  4           0  0  0
    6.5043   -0.8850   -1.7982 C   0  0  0  0  0  4           0  0  0
   -2.0952   -0.0000    1.4193 C   0  0  0  0  0  4           0  0  0
    8.9562   -0.7852   -1.9110 C   0  0  0  0  0  4           0  0  0
    7.5976   -0.7197   -3.9412 C   0  0  0  0  0  4           0  0  0
    6.4129   -0.8059   -3.1987 C   0  0  0  0  0  4           0  0  0
   -4.8529   -2.5964    1.5193 C   0  0  0  0  0  4           0  0  0
    0.0000    0.0000    0.0000 C   0  0  0  0  0  4           0  0  0
    2.0106   -1.1853    0.6843 C   0  0  0  0  0  4           0  0  0
    1.9691    0.0811   -1.3812 C   0  0  0  0  0  4           0  0  0
    4.1247   -1.0509   -0.7026 C   0  0  1  0  0  4           0  0  0
   -6.3536   -0.1042    1.5136 C   0  0  0  0  0  4           0  0  0
   -0.6012    0.0000    1.4115 C   0  0  0  0  0  4           0  0  0
   -2.3314    2.4942    1.4489 C   0  0  0  0  0  4           0  0  0
   -6.3314   -2.5469    1.1827 C   0  0  0  0  0  4           0  0  0
    3.5419   -1.1604    0.7132 C   0  0  0  0  0  4           0  0  0
    3.4968    0.1527   -1.4180 C   0  0  0  0  0  4           0  0  0
   -6.9773   -1.4127    1.9522 C   0  0  0  0  0  4           0  0  0
  1  8  1  0     0  0
  2  4  1  0     0  0
  2  9  1  0     0  0
  3 10  2  0     0  0
  4 12  2  0     0  0
  5 10  1  0     0  0
  5 11  1  0     0  0
  5 19  1  0     0  0
  6 11  2  0     0  0
  6 13  1  0     0  0
  7 20  1  0     0  0
  7 21  1  0     0  0
  7 22  1  0     0  0
  8 16  2  0     0  0
  8 17  1  0     0  0
  9 14  2  0     0  0
  9 16  1  0     0  0
 10 15  1  0     0  0
 11 24  1  0     0  0
 12 14  1  0     0  0
 12 23  1  0     0  0
 13 15  2  0     0  0
 13 26  1  0     0  0
 14 18  1  0     0  0
 15 25  1  0     0  0
 17 18  2  0     0  0
 19 27  1  0     0  0
 20 25  1  0     0  0
 21 28  1  0     0  0
 22 29  1  0     0  0
 23 28  1  0     0  0
 23 29  1  0     0  0
 24 30  1  0     0  0
 27 30  1  0     0  0
M  END
> <standard_type>
pIC50

> <# Confs.>
25

> <canonical_smiles>
O=C1C(CCN2CCC(CC2)C3=NOC4=C3C=CC(F)=C4)=C(N=C5N1CCCC5)C

> <standard_relation>
=

> <Publication_ID>
nan

> <predicted_activity_value>
nan

> <actual_activity_value>
0.7772835288524167

> <Compound>
Risperidone

> <standard_units>
uM

> hash
1864929009563516205

$$$$
47
XXILIB    08252103503D 0   0.00000     0.00000

 30 34  0     1  0            999 V2000
    7.5473   -6.7777   -1.4688 F   0  0  0  0  0  1           0  0  0
    3.8659   -3.9205   -2.6068 O   0  0  0  0  0  2           0  0  0
   -2.0869   -2.3760    1.3893 O   0  0  0  0  0  2           0  0  0
    3.4595   -2.6783   -2.1487 N   0  0  0  0  0  3           0  0  0
   -4.1472   -1.3047    1.4697 N   0  0  2  0  0  3           0  0  0
   -4.2598    1.0636    1.5152 N   0  0  0  0  0  3           0  0  0
    1.4679    0.0000    0.0000 N   0  0  1  0  0  3           0  0  0
    6.8194   -5.6591   -1.3357 C   0  0  0  0  0  4           0  0  0
    4.9887   -4.3049   -1.9458 C   0  0  0  0  0  4           0  0  0
   -2.7590   -1.3470    1.4227 C   0  0  0  0  0  4           0  0  0
   -4.8272   -0.0982    1.5119 C   0  0  0  0  0  4           0  0  0
    4.3475   -2.3240   -1.2076 C   0  0  0  0  0  4           0  0  0
   -2.8846    1.0949    1.4678 C   0  0  0  0  0  4           0  0  0
    5.3425   -3.3237   -1.0358 C   0  0  0  0  0  4           0  0  0
   -2.0952   -0.0000    1.4193 C   0  0  0  0  0  4           0  0  0
    5.6896   -5.4913   -2.1381 C   0  0  0  0  0  4           0  0  0
    7.2168   -4.7019   -0.4014 C   0  0  0  0  0  4           0  0  0
    6.4828   -3.5201   -0.2377 C   0  0  0  0  0  4           0  0  0
   -4.9276   -2.5395    1.5207 C   0  0  0  0  0  4           0  0  0
    0.0000    0.0000    0.0000 C   0  0  0  0  0  4           0  0  0
    2.0086    0.0000   -1.3683 C   0  0  0  0  0  4           0  0  0
    1.9712   -1.1565    0.7552 C   0  0  0  0  0  4           0  0  0
    4.2014   -1.0201   -0.5051 C   0  0  1  0  0  4           0  0  0
   -6.3340   -0.2034    1.5680 C   0  0  0  0  0  4           0  0  0
   -0.6012    0.0000    1.4115 C   0  0  0  0  0  4           0  0  0
   -2.3377    2.4992    1.4536 C   0  0  0  0  0  4           0  0  0
   -6.0662   -2.5090    0.5066 C   0  0  0  0  0  4           0  0  0
    3.5394    0.0655   -1.3662 C   0  0  0  0  0  4           0  0  0
    3.4987   -1.1374    0.8551 C   0  0  0  0  0  4           0  0  0
   -6.8360   -1.1840    0.5145 C   0  0  0  0  0  4           0  0  0
  1  8  1  0     0  0
  2  4  1  0     0  0
  2  9  1  0     0  0
  3 10  2  0     0  0
  4 12  2  0     0  0
  5 10  1  0     0  0
  5 11  1  0     0  0
  5 19  1  0     0  0
  6 11  2  0     0  0
  6 13  1  0     0  0
  7 20  1  0     0  0
  7 21  1  0     0  0
  7 22  1  0     0  0
  8 16  2  0     0  0
  8 17  1  0     0  0
  9 14  2  0     0  0
  9 16  1  0     0  0
 10 15  1  0     0  0
 11 24  1  0     0  0
 12 14  1  0     0  0
 12 23  1  0     0  0
 13 15  2  0     0  0
 13 26  1  0     0  0
 14 18  1  0     0  0
 15 25  1  0     0  0
 17 18  2  0     0  0
 19 27  1  0     0  0
 20 25  1  0     0  0
 21 28  1  0     0  0
 22 29  1  0     0  0
 23 28  1  0     0  0
 23 29  1  0     0  0
 24 30  1  0     0  0
 27 30  1  0     0  0
M  END
> <standard_type>
pIC50

> <# Confs.>
25

> <canonical_smiles>
O=C1C(CCN2CCC(CC2)C3=NOC4=C3C=CC(F)=C4)=C(N=C5N1CCCC5)C

> <standard_relation>
=

> <Publication_ID>
nan

> <predicted_activity_value>
nan

> <actual_activity_value>
0.7772835288524167

> <Compound>
Risperidone

> <standard_units>
uM

> hash
1864929009563516205

$$$$
47
XXILIB    08252103503D 0   0.00000     0.00000

 30 34  0     1  0            999 V2000
    8.1125    0.4701    6.5967 F   0  0  0  0  0  1           0  0  0
    3.7207    0.1077    4.7010 O   0  0  0  0  0  2           0  0  0
   -2.0856    2.3704    1.4222 O   0  0  0  0  0  2           0  0  0
    3.2587    0.0462    3.3969 N   0  0  0  0  0  3           0  0  0
   -4.1591    1.3129    1.4410 N   0  0  2  0  0  3           0  0  0
   -4.2582   -1.0495    1.5129 N   0  0  0  0  0  3           0  0  0
    1.4679   -0.0000   -0.0000 N   0  0  1  0  0  3           0  0  0
    7.2617    0.3924    5.5628 C   0  0  0  0  0  4           0  0  0
    5.0752    0.2121    4.7000 C   0  0  0  0  0  4           0  0  0
   -2.7622    1.3425    1.4228 C   0  0  0  0  0  4           0  0  0
   -4.8370    0.1092    1.5030 C   0  0  0  0  0  4           0  0  0
    4.3475    0.1162    2.6164 C   0  0  0  0  0  4           0  0  0
   -2.8862   -1.0907    1.4695 C   0  0  0  0  0  4           0  0  0
    5.5322    0.2248    3.3935 C   0  0  0  0  0  4           0  0  0
   -2.0952   -0.0000    1.4193 C   0  0  0  0  0  4           0  0  0
    5.8938    0.2929    5.8222 C   0  0  0  0  0  4           0  0  0
    7.7729    0.4125    4.2646 C   0  0  0  0  0  4           0  0  0
    6.9144    0.3296    3.1608 C   0  0  0  0  0  4           0  0  0
   -4.8490    2.6039    1.5304 C   0  0  0  0  0  4           0  0  0
    0.0000    0.0000   -0.0000 C   0  0  0  0  0  4           0  0  0
    2.0086   -1.1850    0.6841 C   0  0  0  0  0  4           0  0  0
    1.9712    1.2323    0.6240 C   0  0  0  0  0  4           0  0  0
    4.2014    0.0726    1.1360 C   0  0  1  0  0  4           0  0  0
   -6.3545    0.1157    1.4903 C   0  0  0  0  0  4           0  0  0
   -0.6012    0.0000    1.4115 C   0  0  0  0  0  4           0  0  0
   -2.3521   -2.4999    1.4525 C   0  0  0  0  0  4           0  0  0
   -6.3230    2.5618    1.1724 C   0  0  0  0  0  4           0  0  0
    3.5394   -1.2159    0.6264 C   0  0  0  0  0  4           0  0  0
    3.4987    1.3092    0.5574 C   0  0  0  0  0  4           0  0  0
   -6.9825    1.4238    1.9240 C   0  0  0  0  0  4           0  0  0
  1  8  1  0     0  0
  2  4  1  0     0  0
  2  9  1  0     0  0
  3 10  2  0     0  0
  4 12  2  0     0  0
  5 10  1  0     0  0
  5 11  1  0     0  0
  5 19  1  0     0  0
  6 11  2  0     0  0
  6 13  1  0     0  0
  7 20  1  0     0  0
  7 21  1  0     0  0
  7 22  1  0     0  0
  8 16  2  0     0  0
  8 17  1  0     0  0
  9 14  2  0     0  0
  9 16  1  0     0  0
 10 15  1  0     0  0
 11 24  1  0     0  0
 12 14  1  0     0  0
 12 23  1  0     0  0
 13 15  2  0     0  0
 13 26  1  0     0  0
 14 18  1  0     0  0
 15 25  1  0     0  0
 17 18  2  0     0  0
 19 27  1  0     0  0
 20 25  1  0     0  0
 21 28  1  0     0  0
 22 29  1  0     0  0
 23 28  1  0     0  0
 23 29  1  0     0  0
 24 30  1  0     0  0
 27 30  1  0     0  0
M  END
> <standard_type>
pIC50

> <# Confs.>
25

> <canonical_smiles>
O=C1C(CCN2CCC(CC2)C3=NOC4=C3C=CC(F)=C4)=C(N=C5N1CCCC5)C

> <standard_relation>
=

> <Publication_ID>
nan

> <predicted_activity_value>
nan

> <actual_activity_value>
0.7772835288524167

> <Compound>
Risperidone

> <standard_units>
uM

> hash
1864929009563516205

$$$$
47
XXILIB    08252103503D 0   0.00000     0.00000

 30 34  0     1  0            999 V2000
    7.7829   -5.1659   -4.4115 F   0  0  0  0  0  1           0  0  0
    3.7965   -4.3194   -1.8808 O   0  0  0  0  0  2           0  0  0
   -2.0869   -2.3760    1.3893 O   0  0  0  0  0  2           0  0  0
    3.3671   -3.2365   -1.1318 N   0  0  0  0  0  3           0  0  0
   -4.1472   -1.3047    1.4697 N   0  0  2  0  0  3           0  0  0
   -4.2598    1.0636    1.5152 N   0  0  0  0  0  3           0  0  0
    1.4679    0.0000    0.0000 N   0  0  1  0  0  3           0  0  0
    7.0079   -4.4047   -3.6248 C   0  0  0  0  0  4           0  0  0
    5.0232   -4.0555   -2.4014 C   0  0  0  0  0  4           0  0  0
   -2.7590   -1.3470    1.4227 C   0  0  0  0  0  4           0  0  0
   -4.8272   -0.0982    1.5119 C   0  0  0  0  0  4           0  0  0
    4.3475   -2.3240   -1.2076 C   0  0  0  0  0  4           0  0  0
   -2.8846    1.0949    1.4678 C   0  0  0  0  0  4           0  0  0
    5.4279   -2.7934   -2.0022 C   0  0  0  0  0  4           0  0  0
   -2.0952   -0.0000    1.4193 C   0  0  0  0  0  4           0  0  0
    5.7716   -4.9038   -3.2116 C   0  0  0  0  0  4           0  0  0
    7.4634   -3.1408   -3.2477 C   0  0  0  0  0  4           0  0  0
    6.6792   -2.3170   -2.4298 C   0  0  0  0  0  4           0  0  0
   -4.9276   -2.5395    1.5207 C   0  0  0  0  0  4           0  0  0
    0.0000    0.0000    0.0000 C   0  0  0  0  0  4           0  0  0
    2.0086    0.0000   -1.3683 C   0  0  0  0  0  4           0  0  0
    1.9712   -1.1565    0.7552 C   0  0  0  0  0  4           0  0  0
    4.2014   -1.0201   -0.5051 C   0  0  1  0  0  4           0  0  0
   -6.3340   -0.2034    1.5680 C   0  0  0  0  0  4           0  0  0
   -0.6012    0.0000    1.4115 C   0  0  0  0  0  4           0  0  0
   -2.3377    2.4992    1.4536 C   0  0  0  0  0  4           0  0  0
   -6.0662   -2.5090    0.5066 C   0  0  0  0  0  4           0  0  0
    3.5394    0.0655   -1.3662 C   0  0  0  0  0  4           0  0  0
    3.4987   -1.1374    0.8551 C   0  0  0  0  0  4           0  0  0
   -6.8360   -1.1840    0.5145 C   0  0  0  0  0  4           0  0  0
  1  8  1  0     0  0
  2  4  1  0     0  0
  2  9  1  0     0  0
  3 10  2  0     0  0
  4 12  2  0     0  0
  5 10  1  0     0  0
  5 11  1  0     0  0
  5 19  1  0     0  0
  6 11  2  0     0  0
  6 13  1  0     0  0
  7 20  1  0     0  0
  7 21  1  0     0  0
  7 22  1  0     0  0
  8 16  2  0     0  0
  8 17  1  0     0  0
  9 14  2  0     0  0
  9 16  1  0     0  0
 10 15  1  0     0  0
 11 24  1  0     0  0
 12 14  1  0     0  0
 12 23  1  0     0  0
 13 15  2  0     0  0
 13 26  1  0     0  0
 14 18  1  0     0  0
 15 25  1  0     0  0
 17 18  2  0     0  0
 19 27  1  0     0  0
 20 25  1  0     0  0
 21 28  1  0     0  0
 22 29  1  0     0  0
 23 28  1  0     0  0
 23 29  1  0     0  0
 24 30  1  0     0  0
 27 30  1  0     0  0
M  END
> <standard_type>
pIC50

> <# Confs.>
25

> <canonical_smiles>
O=C1C(CCN2CCC(CC2)C3=NOC4=C3C=CC(F)=C4)=C(N=C5N1CCCC5)C

> <standard_relation>
=

> <Publication_ID>
nan

> <predicted_activity_value>
nan

> <actual_activity_value>
0.7772835288524167

> <Compound>
Risperidone

> <standard_units>
uM

> hash
1864929009563516205

$$$$
47
XXILIB    08252103503D 0   0.00000     0.00000

 30 34  0     1  0            999 V2000
    8.1125    0.4701    6.5967 F   0  0  0  0  0  1           0  0  0
    3.7207    0.1077    4.7010 O   0  0  0  0  0  2           0  0  0
   -2.0901   -2.3690    1.4231 O   0  0  0  0  0  2           0  0  0
    3.2587    0.0462    3.3969 N   0  0  0  0  0  3           0  0  0
   -4.1616   -1.3061    1.4402 N   0  0  2  0  0  3           0  0  0
   -4.2541    1.0569    1.5252 N   0  0  0  0  0  3           0  0  0
    1.4679   -0.0000   -0.0000 N   0  0  1  0  0  3           0  0  0
    7.2617    0.3924    5.5628 C   0  0  0  0  0  4           0  0  0
    5.0752    0.2121    4.7000 C   0  0  0  0  0  4           0  0  0
   -2.7647   -1.3398    1.4228 C   0  0  0  0  0  4           0  0  0
   -4.8360   -0.1007    1.5134 C   0  0  0  0  0  4           0  0  0
    4.3475    0.1162    2.6164 C   0  0  0  0  0  4           0  0  0
   -2.8826    1.0925    1.4726 C   0  0  0  0  0  4           0  0  0
    5.5322    0.2248    3.3935 C   0  0  0  0  0  4           0  0  0
   -2.0952   -0.0000    1.4193 C   0  0  0  0  0  4           0  0  0
    5.8938    0.2929    5.8222 C   0  0  0  0  0  4           0  0  0
    7.7729    0.4125    4.2646 C   0  0  0  0  0  4           0  0  0
    6.9144    0.3296    3.1608 C   0  0  0  0  0  4           0  0  0
   -4.8529   -2.5964    1.5193 C   0  0  0  0  0  4           0  0  0
    0.0000    0.0000    0.0000 C   0  0  0  0  0  4           0  0  0
    2.0086   -1.1850    0.6841 C   0  0  0  0  0  4           0  0  0
    1.9712    1.2323    0.6240 C   0  0  0  0  0  4           0  0  0
    4.2014    0.0726    1.1360 C   0  0  1  0  0  4           0  0  0
   -6.3536   -0.1042    1.5136 C   0  0  0  0  0  4           0  0  0
   -0.6012    0.0000    1.4115 C   0  0  0  0  0  4           0  0  0
   -2.3314    2.4942    1.4489 C   0  0  0  0  0  4           0  0  0
   -6.3314   -2.5469    1.1827 C   0  0  0  0  0  4           0  0  0
    3.5394   -1.2159    0.6264 C   0  0  0  0  0  4           0  0  0
    3.4987    1.3092    0.5574 C   0  0  0  0  0  4           0  0  0
   -6.9773   -1.4127    1.9522 C   0  0  0  0  0  4           0  0  0
  1  8  1  0     0  0
  2  4  1  0     0  0
  2  9  1  0     0  0
  3 10  2  0     0  0
  4 12  2  0     0  0
  5 10  1  0     0  0
  5 11  1  0     0  0
  5 19  1  0     0  0
  6 11  2  0     0  0
  6 13  1  0     0  0
  7 20  1  0     0  0
  7 21  1  0     0  0
  7 22  1  0     0  0
  8 16  2  0     0  0
  8 17  1  0     0  0
  9 14  2  0     0  0
  9 16  1  0     0  0
 10 15  1  0     0  0
 11 24  1  0     0  0
 12 14  1  0     0  0
 12 23  1  0     0  0
 13 15  2  0     0  0
 13 26  1  0     0  0
 14 18  1  0     0  0
 15 25  1  0     0  0
 17 18  2  0     0  0
 19 27  1  0     0  0
 20 25  1  0     0  0
 21 28  1  0     0  0
 22 29  1  0     0  0
 23 28  1  0     0  0
 23 29  1  0     0  0
 24 30  1  0     0  0
 27 30  1  0     0  0
M  END
> <standard_type>
pIC50

> <# Confs.>
25

> <canonical_smiles>
O=C1C(CCN2CCC(CC2)C3=NOC4=C3C=CC(F)=C4)=C(N=C5N1CCCC5)C

> <standard_relation>
=

> <Publication_ID>
nan

> <predicted_activity_value>
nan

> <actual_activity_value>
0.7772835288524167

> <Compound>
Risperidone

> <standard_units>
uM

> hash
1864929009563516205

$$$$
47
XXILIB    08252103503D 0   0.00000     0.00000

 30 34  0     1  0            999 V2000
    7.7829   -5.1659   -4.4115 F   0  0  0  0  0  1           0  0  0
    3.7965   -4.3194   -1.8808 O   0  0  0  0  0  2           0  0  0
   -2.0901    2.3690    1.4154 O   0  0  0  0  0  2           0  0  0
    3.3671   -3.2365   -1.1318 N   0  0  0  0  0  3           0  0  0
   -4.1617    1.3061    1.4199 N   0  0  2  0  0  3           0  0  0
   -4.2551   -1.0569    1.3359 N   0  0  0  0  0  3           0  0  0
    1.4679    0.0000    0.0000 N   0  0  1  0  0  3           0  0  0
    7.0079   -4.4047   -3.6248 C   0  0  0  0  0  4           0  0  0
    5.0232   -4.0555   -2.4014 C   0  0  0  0  0  4           0  0  0
   -2.7647    1.3398    1.4228 C   0  0  0  0  0  4           0  0  0
   -4.8369    0.1007    1.3538 C   0  0  0  0  0  4           0  0  0
    4.3475   -2.3240   -1.2076 C   0  0  0  0  0  4           0  0  0
   -2.8831   -1.0925    1.3742 C   0  0  0  0  0  4           0  0  0
    5.4279   -2.7934   -2.0022 C   0  0  0  0  0  4           0  0  0
   -2.0952   -0.0000    1.4193 C   0  0  0  0  0  4           0  0  0
    5.7716   -4.9038   -3.2116 C   0  0  0  0  0  4           0  0  0
    7.4634   -3.1408   -3.2477 C   0  0  0  0  0  4           0  0  0
    6.6792   -2.3170   -2.4298 C   0  0  0  0  0  4           0  0  0
   -4.8538    2.5964    1.3481 C   0  0  0  0  0  4           0  0  0
    0.0000    0.0000   -0.0000 C   0  0  0  0  0  4           0  0  0
    2.0086    0.0000   -1.3683 C   0  0  0  0  0  4           0  0  0
    1.9712   -1.1565    0.7552 C   0  0  0  0  0  4           0  0  0
    4.2014   -1.0201   -0.5051 C   0  0  1  0  0  4           0  0  0
   -6.3543    0.1042    1.3695 C   0  0  0  0  0  4           0  0  0
   -0.6012    0.0000    1.4115 C   0  0  0  0  0  4           0  0  0
   -2.3317   -2.4942    1.3921 C   0  0  0  0  0  4           0  0  0
   -6.3287    2.5469    1.7001 C   0  0  0  0  0  4           0  0  0
    3.5394    0.0655   -1.3662 C   0  0  0  0  0  4           0  0  0
    3.4987   -1.1374    0.8551 C   0  0  0  0  0  4           0  0  0
   -6.9826    1.4127    0.9374 C   0  0  0  0  0  4           0  0  0
  1  8  1  0     0  0
  2  4  1  0     0  0
  2  9  1  0     0  0
  3 10  2  0     0  0
  4 12  2  0     0  0
  5 10  1  0     0  0
  5 11  1  0     0  0
  5 19  1  0     0  0
  6 11  2  0     0  0
  6 13  1  0     0  0
  7 20  1  0     0  0
  7 21  1  0     0  0
  7 22  1  0     0  0
  8 16  2  0     0  0
  8 17  1  0     0  0
  9 14  2  0     0  0
  9 16  1  0     0  0
 10 15  1  0     0  0
 11 24  1  0     0  0
 12 14  1  0     0  0
 12 23  1  0     0  0
 13 15  2  0     0  0
 13 26  1  0     0  0
 14 18  1  0     0  0
 15 25  1  0     0  0
 17 18  2  0     0  0
 19 27  1  0     0  0
 20 25  1  0     0  0
 21 28  1  0     0  0
 22 29  1  0     0  0
 23 28  1  0     0  0
 23 29  1  0     0  0
 24 30  1  0     0  0
 27 30  1  0     0  0
M  END
> <standard_type>
pIC50

> <# Confs.>
25

> <canonical_smiles>
O=C1C(CCN2CCC(CC2)C3=NOC4=C3C=CC(F)=C4)=C(N=C5N1CCCC5)C

> <standard_relation>
=

> <Publication_ID>
nan

> <predicted_activity_value>
nan

> <actual_activity_value>
0.7772835288524167

> <Compound>
Risperidone

> <standard_units>
uM

> hash
1864929009563516205

$$$$
53
XXILIB    08252103503D 0   0.00000     0.00000

 34 37  0     1  0            999 V2000
    1.7654   -0.0000    0.0000 S   0  0  2  0  0  6           0  0  0
    2.1890    0.5759   -1.2625 O   0  0  0  0  0  2           0  0  0
    2.2082    0.5812    1.2538 O   0  0  0  0  0  2           0  0  0
   -2.1157   -1.2016    5.7397 O   0  0  0  0  0  2           0  0  0
   -4.1646   -0.0760    0.0390 O   0  0  0  0  0  2           0  0  0
   -4.6448    0.4546    3.8197 N   0  0  0  0  0  3           0  0  0
   -4.0581    0.4974    2.5931 N   0  0  0  0  0  3           0  0  0
   -2.1475   -0.6161    3.5198 N   0  0  0  0  0  3           0  0  0
   -6.0552    0.6705    5.5071 N   0  0  0  0  0  3           0  0  0
    2.1095   -1.6836    0.0000 N   0  0  1  0  0  3           0  0  0
    2.1321   -4.5680   -0.0776 N   0  0  1  0  0  3           0  0  0
    0.0000    0.0000   -0.0000 C   0  0  0  0  0  4           0  0  0
   -2.7002   -0.6896    4.7913 C   0  0  0  0  0  4           0  0  0
   -2.7999   -0.0820   -0.0194 C   0  0  0  0  0  4           0  0  0
   -2.7930   -0.0643    2.5217 C   0  0  0  0  0  4           0  0  0
   -5.8723    0.9169    4.2236 C   0  0  0  0  0  4           0  0  0
   -4.0184   -0.1107    4.8953 C   0  0  0  0  0  4           0  0  0
   -4.9113    0.0330    5.9382 C   0  0  0  0  0  4           0  0  0
   -2.0974   -0.0444    1.2015 C   0  0  0  0  0  4           0  0  0
   -0.6945    0.0000    1.2080 C   0  0  0  0  0  4           0  0  0
   -0.6790   -0.0469   -1.2138 C   0  0  0  0  0  4           0  0  0
   -2.0751   -0.0814   -1.2210 C   0  0  0  0  0  4           0  0  0
   -4.8335   -0.1150   -1.2218 C   0  0  0  0  0  4           0  0  0
    1.5966   -2.4863    1.1489 C   0  0  0  0  0  4           0  0  0
    1.9253   -2.4171   -1.2869 C   0  0  0  0  0  4           0  0  0
    2.3184   -3.8330    1.1839 C   0  0  0  0  0  4           0  0  0
    2.6343   -3.7695   -1.2081 C   0  0  0  0  0  4           0  0  0
    2.7913   -5.8728   -0.0014 C   0  0  0  0  0  4           0  0  0
   -6.8348    1.5984    3.3204 C   0  0  0  0  0  4           0  0  0
   -4.7763   -0.3829    7.3491 C   0  0  0  0  0  4           0  0  0
   -7.7759    0.6014    2.6537 C   0  0  0  0  0  4           0  0  0
   -6.3290   -0.1021   -0.9634 C   0  0  0  0  0  4           0  0  0
    2.2298   -6.7308    1.1276 C   0  0  0  0  0  4           0  0  0
   -8.7771    1.2660    1.7201 C   0  0  0  0  0  4           0  0  0
  1  2  2  0     0  0
  1  3  2  0     0  0
  1 10  1  0     0  0
  1 12  1  0     0  0
  4 13  2  0     0  0
  5 14  1  0     0  0
  5 23  1  0     0  0
  6  7  1  0     0  0
  6 16  1  0     0  0
  6 17  1  0     0  0
  7 15  1  0     0  0
  8 13  1  0     0  0
  8 15  2  0     0  0
  9 16  2  0     0  0
  9 18  1  0     0  0
 10 24  1  0     0  0
 10 25  1  0     0  0
 11 26  1  0     0  0
 11 27  1  0     0  0
 11 28  1  0     0  0
 12 20  1  0     0  0
 12 21  2  0     0  0
 13 17  1  0     0  0
 14 19  1  0     0  0
 14 22  2  0     0  0
 15 19  1  0     0  0
 16 29  1  0     0  0
 17 18  2  0     0  0
 18 30  1  0     0  0
 19 20  2  0     0  0
 21 22  1  0     0  0
 23 32  1  0     0  0
 24 26  1  0     0  0
 25 27  1  0     0  0
 28 33  1  0     0  0
 29 31  1  0     0  0
 31 34  1  0     0  0
M  END
> <standard_type>
pIC50

> <# Confs.>
25

> <canonical_smiles>
CCN1CCN(S(C2=CC=C(OCC)C(C(NN3C4=C(C)N=C3CCC)=NC4=O)=C2)(=O)=O)CC1

> <standard_relation>
=

> <Publication_ID>
nan

> <predicted_activity_value>
nan

> <actual_activity_value>
-1.1072099696478683

> <Compound>
Vardenafil

> <standard_units>
uM

> hash
535501735745654877

$$$$
53
XXILIB    08252103503D 0   0.00000     0.00000

 34 37  0     1  0            999 V2000
    1.7654    0.0000    0.0000 S   0  0  2  0  0  6           0  0  0
    2.1890   -0.5759    1.2625 O   0  0  0  0  0  2           0  0  0
    2.2082   -0.5812   -1.2538 O   0  0  0  0  0  2           0  0  0
   -2.2136    1.1680    5.7238 O   0  0  0  0  0  2           0  0  0
   -4.1646   -0.0760    0.0390 O   0  0  0  0  0  2           0  0  0
   -4.5986   -0.7128    3.8264 N   0  0  0  0  0  3           0  0  0
   -4.0072   -0.7280    2.6015 N   0  0  0  0  0  3           0  0  0
   -2.1964    0.5534    3.5116 N   0  0  0  0  0  3           0  0  0
   -5.9891   -1.0185    5.5165 N   0  0  0  0  0  3           0  0  0
    2.1095    1.6836    0.0000 N   0  0  1  0  0  3           0  0  0
    2.1321    4.5680    0.0776 N   0  0  1  0  0  3           0  0  0
    0.0000    0.0000    0.0000 C   0  0  0  0  0  4           0  0  0
   -2.7535    0.5972    4.7825 C   0  0  0  0  0  4           0  0  0
   -2.7999   -0.0820   -0.0194 C   0  0  0  0  0  4           0  0  0
   -2.7930   -0.0643    2.5217 C   0  0  0  0  0  4           0  0  0
   -5.7863   -1.2651    4.2360 C   0  0  0  0  0  4           0  0  0
   -4.0201   -0.0858    4.8947 C   0  0  0  0  0  4           0  0  0
   -4.9003   -0.2859    5.9392 C   0  0  0  0  0  4           0  0  0
   -2.0974   -0.0444    1.2015 C   0  0  0  0  0  4           0  0  0
   -0.6945    0.0000    1.2080 C   0  0  0  0  0  4           0  0  0
   -0.6790   -0.0469   -1.2138 C   0  0  0  0  0  4           0  0  0
   -2.0751   -0.0814   -1.2210 C   0  0  0  0  0  4           0  0  0
   -4.8335   -0.1150   -1.2218 C   0  0  0  0  0  4           0  0  0
    1.5966    2.4863   -1.1489 C   0  0  0  0  0  4           0  0  0
    1.9253    2.4171    1.2869 C   0  0  0  0  0  4           0  0  0
    2.3184    3.8330   -1.1839 C   0  0  0  0  0  4           0  0  0
    2.6343    3.7695    1.2081 C   0  0  0  0  0  4           0  0  0
    2.7913    5.8728    0.0014 C   0  0  0  0  0  4           0  0  0
   -6.6956   -2.0240    3.3393 C   0  0  0  0  0  4           0  0  0
   -4.8079    0.1712    7.3407 C   0  0  0  0  0  4           0  0  0
   -7.7114   -1.1062    2.6687 C   0  0  0  0  0  4           0  0  0
   -6.3290   -0.1021   -0.9634 C   0  0  0  0  0  4           0  0  0
    2.2298    6.7308   -1.1276 C   0  0  0  0  0  4           0  0  0
   -8.6605   -1.8514    1.7415 C   0  0  0  0  0  4           0  0  0
  1  2  2  0     0  0
  1  3  2  0     0  0
  1 10  1  0     0  0
  1 12  1  0     0  0
  4 13  2  0     0  0
  5 14  1  0     0  0
  5 23  1  0     0  0
  6  7  1  0     0  0
  6 16  1  0     0  0
  6 17  1  0     0  0
  7 15  1  0     0  0
  8 13  1  0     0  0
  8 15  2  0     0  0
  9 16  2  0     0  0
  9 18  1  0     0  0
 10 24  1  0     0  0
 10 25  1  0     0  0
 11 26  1  0     0  0
 11 27  1  0     0  0
 11 28  1  0     0  0
 12 20  1  0     0  0
 12 21  2  0     0  0
 13 17  1  0     0  0
 14 19  1  0     0  0
 14 22  2  0     0  0
 15 19  1  0     0  0
 16 29  1  0     0  0
 17 18  2  0     0  0
 18 30  1  0     0  0
 19 20  2  0     0  0
 21 22  1  0     0  0
 23 32  1  0     0  0
 24 26  1  0     0  0
 25 27  1  0     0  0
 28 33  1  0     0  0
 29 31  1  0     0  0
 31 34  1  0     0  0
M  END
> <standard_type>
pIC50

> <# Confs.>
25

> <canonical_smiles>
CCN1CCN(S(C2=CC=C(OCC)C(C(NN3C4=C(C)N=C3CCC)=NC4=O)=C2)(=O)=O)CC1

> <standard_relation>
=

> <Publication_ID>
nan

> <predicted_activity_value>
nan

> <actual_activity_value>
-1.1072099696478683

> <Compound>
Vardenafil

> <standard_units>
uM

> hash
535501735745654877

$$$$
53
XXILIB    08252103503D 0   0.00000     0.00000

 34 37  0     1  0            999 V2000
    1.7654   -0.0000    0.0000 S   0  0  2  0  0  6           0  0  0
    2.1890    0.5759   -1.2625 O   0  0  0  0  0  2           0  0  0
    2.2082    0.5812    1.2538 O   0  0  0  0  0  2           0  0  0
   -2.1157   -1.2016    5.7397 O   0  0  0  0  0  2           0  0  0
   -4.1646   -0.0760    0.0390 O   0  0  0  0  0  2           0  0  0
   -4.6448    0.4546    3.8197 N   0  0  0  0  0  3           0  0  0
   -4.0581    0.4974    2.5931 N   0  0  0  0  0  3           0  0  0
   -2.1475   -0.6161    3.5198 N   0  0  0  0  0  3           0  0  0
   -6.0552    0.6705    5.5071 N   0  0  0  0  0  3           0  0  0
    2.1095   -1.6836    0.0000 N   0  0  1  0  0  3           0  0  0
    2.1321   -4.5680   -0.0776 N   0  0  1  0  0  3           0  0  0
    0.0000    0.0000   -0.0000 C   0  0  0  0  0  4           0  0  0
   -2.7002   -0.6896    4.7913 C   0  0  0  0  0  4           0  0  0
   -2.7999   -0.0820   -0.0194 C   0  0  0  0  0  4           0  0  0
   -2.7930   -0.0643    2.5217 C   0  0  0  0  0  4           0  0  0
   -5.8723    0.9169    4.2236 C   0  0  0  0  0  4           0  0  0
   -4.0184   -0.1107    4.8953 C   0  0  0  0  0  4           0  0  0
   -4.9113    0.0330    5.9382 C   0  0  0  0  0  4           0  0  0
   -2.0974   -0.0444    1.2015 C   0  0  0  0  0  4           0  0  0
   -0.6945    0.0000    1.2080 C   0  0  0  0  0  4           0  0  0
   -0.6790   -0.0469   -1.2138 C   0  0  0  0  0  4           0  0  0
   -2.0751   -0.0814   -1.2210 C   0  0  0  0  0  4           0  0  0
   -4.8335   -0.1150   -1.2218 C   0  0  0  0  0  4           0  0  0
    1.5966   -2.4863    1.1489 C   0  0  0  0  0  4           0  0  0
    1.9253   -2.4171   -1.2869 C   0  0  0  0  0  4           0  0  0
    2.3184   -3.8330    1.1839 C   0  0  0  0  0  4           0  0  0
    2.6343   -3.7695   -1.2081 C   0  0  0  0  0  4           0  0  0
    2.7913   -5.8728   -0.0014 C   0  0  0  0  0  4           0  0  0
   -6.8348    1.5984    3.3204 C   0  0  0  0  0  4           0  0  0
   -4.7763   -0.3829    7.3491 C   0  0  0  0  0  4           0  0  0
   -6.6166    3.1072    3.3090 C   0  0  0  0  0  4           0  0  0
   -6.3290   -0.1021   -0.9634 C   0  0  0  0  0  4           0  0  0
    2.2298   -6.7308    1.1276 C   0  0  0  0  0  4           0  0  0
   -7.5870    3.8384    2.3927 C   0  0  0  0  0  4           0  0  0
  1  2  2  0     0  0
  1  3  2  0     0  0
  1 10  1  0     0  0
  1 12  1  0     0  0
  4 13  2  0     0  0
  5 14  1  0     0  0
  5 23  1  0     0  0
  6  7  1  0     0  0
  6 16  1  0     0  0
  6 17  1  0     0  0
  7 15  1  0     0  0
  8 13  1  0     0  0
  8 15  2  0     0  0
  9 16  2  0     0  0
  9 18  1  0     0  0
 10 24  1  0     0  0
 10 25  1  0     0  0
 11 26  1  0     0  0
 11 27  1  0     0  0
 11 28  1  0     0  0
 12 20  1  0     0  0
 12 21  2  0     0  0
 13 17  1  0     0  0
 14 19  1  0     0  0
 14 22  2  0     0  0
 15 19  1  0     0  0
 16 29  1  0     0  0
 17 18  2  0     0  0
 18 30  1  0     0  0
 19 20  2  0     0  0
 21 22  1  0     0  0
 23 32  1  0     0  0
 24 26  1  0     0  0
 25 27  1  0     0  0
 28 33  1  0     0  0
 29 31  1  0     0  0
 31 34  1  0     0  0
M  END
> <standard_type>
pIC50

> <# Confs.>
25

> <canonical_smiles>
CCN1CCN(S(C2=CC=C(OCC)C(C(NN3C4=C(C)N=C3CCC)=NC4=O)=C2)(=O)=O)CC1

> <standard_relation>
=

> <Publication_ID>
nan

> <predicted_activity_value>
nan

> <actual_activity_value>
-1.1072099696478683

> <Compound>
Vardenafil

> <standard_units>
uM

> hash
535501735745654877

$$$$
53
XXILIB    08252103503D 0   0.00000     0.00000

 34 37  0     1  0            999 V2000
    1.7654    0.0000    0.0000 S   0  0  2  0  0  6           0  0  0
    2.1890   -0.5759    1.2625 O   0  0  0  0  0  2           0  0  0
    2.2082   -0.5812   -1.2538 O   0  0  0  0  0  2           0  0  0
   -2.2136    1.1680    5.7238 O   0  0  0  0  0  2           0  0  0
   -4.1646   -0.0760    0.0390 O   0  0  0  0  0  2           0  0  0
   -4.5986   -0.7128    3.8264 N   0  0  0  0  0  3           0  0  0
   -4.0072   -0.7280    2.6015 N   0  0  0  0  0  3           0  0  0
   -2.1964    0.5534    3.5116 N   0  0  0  0  0  3           0  0  0
   -5.9891   -1.0185    5.5165 N   0  0  0  0  0  3           0  0  0
    2.1095    1.6836    0.0000 N   0  0  1  0  0  3           0  0  0
    2.1321    4.5680    0.0776 N   0  0  1  0  0  3           0  0  0
    0.0000    0.0000    0.0000 C   0  0  0  0  0  4           0  0  0
   -2.7535    0.5972    4.7825 C   0  0  0  0  0  4           0  0  0
   -2.7999   -0.0820   -0.0194 C   0  0  0  0  0  4           0  0  0
   -2.7930   -0.0643    2.5217 C   0  0  0  0  0  4           0  0  0
   -5.7863   -1.2651    4.2360 C   0  0  0  0  0  4           0  0  0
   -4.0201   -0.0858    4.8947 C   0  0  0  0  0  4           0  0  0
   -4.9003   -0.2859    5.9392 C   0  0  0  0  0  4           0  0  0
   -2.0974   -0.0444    1.2015 C   0  0  0  0  0  4           0  0  0
   -0.6945    0.0000    1.2080 C   0  0  0  0  0  4           0  0  0
   -0.6790   -0.0469   -1.2138 C   0  0  0  0  0  4           0  0  0
   -2.0751   -0.0814   -1.2210 C   0  0  0  0  0  4           0  0  0
   -4.8335   -0.1150   -1.2218 C   0  0  0  0  0  4           0  0  0
    1.5966    2.4863   -1.1489 C   0  0  0  0  0  4           0  0  0
    1.9253    2.4171    1.2869 C   0  0  0  0  0  4           0  0  0
    2.3184    3.8330   -1.1839 C   0  0  0  0  0  4           0  0  0
    2.6343    3.7695    1.2081 C   0  0  0  0  0  4           0  0  0
    2.7913    5.8728    0.0014 C   0  0  0  0  0  4           0  0  0
   -6.6956   -2.0240    3.3393 C   0  0  0  0  0  4           0  0  0
   -4.8079    0.1712    7.3407 C   0  0  0  0  0  4           0  0  0
   -6.3625   -3.5117    3.3366 C   0  0  0  0  0  4           0  0  0
   -6.3290   -0.1021   -0.9634 C   0  0  0  0  0  4           0  0  0
    2.2298    6.7308   -1.1276 C   0  0  0  0  0  4           0  0  0
   -7.2757   -4.3208    2.4272 C   0  0  0  0  0  4           0  0  0
  1  2  2  0     0  0
  1  3  2  0     0  0
  1 10  1  0     0  0
  1 12  1  0     0  0
  4 13  2  0     0  0
  5 14  1  0     0  0
  5 23  1  0     0  0
  6  7  1  0     0  0
  6 16  1  0     0  0
  6 17  1  0     0  0
  7 15  1  0     0  0
  8 13  1  0     0  0
  8 15  2  0     0  0
  9 16  2  0     0  0
  9 18  1  0     0  0
 10 24  1  0     0  0
 10 25  1  0     0  0
 11 26  1  0     0  0
 11 27  1  0     0  0
 11 28  1  0     0  0
 12 20  1  0     0  0
 12 21  2  0     0  0
 13 17  1  0     0  0
 14 19  1  0     0  0
 14 22  2  0     0  0
 15 19  1  0     0  0
 16 29  1  0     0  0
 17 18  2  0     0  0
 18 30  1  0     0  0
 19 20  2  0     0  0
 21 22  1  0     0  0
 23 32  1  0     0  0
 24 26  1  0     0  0
 25 27  1  0     0  0
 28 33  1  0     0  0
 29 31  1  0     0  0
 31 34  1  0     0  0
M  END
> <standard_type>
pIC50

> <# Confs.>
25

> <canonical_smiles>
CCN1CCN(S(C2=CC=C(OCC)C(C(NN3C4=C(C)N=C3CCC)=NC4=O)=C2)(=O)=O)CC1

> <standard_relation>
=

> <Publication_ID>
nan

> <predicted_activity_value>
nan

> <actual_activity_value>
-1.1072099696478683

> <Compound>
Vardenafil

> <standard_units>
uM

> hash
535501735745654877

$$$$
53
XXILIB    08252103503D 0   0.00000     0.00000

 34 37  0     1  0            999 V2000
    1.7654    0.0000    0.0000 S   0  0  2  0  0  6           0  0  0
    2.1890   -0.5759    1.2625 O   0  0  0  0  0  2           0  0  0
    2.2082   -0.5812   -1.2538 O   0  0  0  0  0  2           0  0  0
   -1.8839   -0.0042    5.8799 O   0  0  0  0  0  2           0  0  0
   -4.1646   -0.0760    0.0390 O   0  0  0  0  0  2           0  0  0
   -4.7600   -0.1350    3.7501 N   0  0  0  0  0  3           0  0  0
   -4.1779   -0.1219    2.5207 N   0  0  0  0  0  3           0  0  0
   -2.0334   -0.0251    3.5888 N   0  0  0  0  0  3           0  0  0
   -6.2223   -0.1825    5.4062 N   0  0  0  0  0  3           0  0  0
    2.1095    1.6836    0.0000 N   0  0  1  0  0  3           0  0  0
    2.1321    4.5680    0.0776 N   0  0  1  0  0  3           0  0  0
    0.0000    0.0000    0.0000 C   0  0  0  0  0  4           0  0  0
   -2.5743   -0.0394    4.8674 C   0  0  0  0  0  4           0  0  0
   -2.7999   -0.0820   -0.0194 C   0  0  0  0  0  4           0  0  0
   -2.7930   -0.0643    2.5217 C   0  0  0  0  0  4           0  0  0
   -6.0879   -0.1851    4.0934 C   0  0  0  0  0  4           0  0  0
   -4.0163   -0.0980    4.8966 C   0  0  0  0  0  4           0  0  0
   -4.9436   -0.1278    5.9187 C   0  0  0  0  0  4           0  0  0
   -2.0974   -0.0444    1.2015 C   0  0  0  0  0  4           0  0  0
   -0.6945   -0.0000    1.2080 C   0  0  0  0  0  4           0  0  0
   -0.6790   -0.0469   -1.2138 C   0  0  0  0  0  4           0  0  0
   -2.0751   -0.0814   -1.2210 C   0  0  0  0  0  4           0  0  0
   -4.8335   -0.1150   -1.2218 C   0  0  0  0  0  4           0  0  0
    1.5966    2.4863   -1.1489 C   0  0  0  0  0  4           0  0  0
    1.9253    2.4171    1.2869 C   0  0  0  0  0  4           0  0  0
    2.3184    3.8330   -1.1839 C   0  0  0  0  0  4           0  0  0
    2.6343    3.7695    1.2081 C   0  0  0  0  0  4           0  0  0
    2.7913    5.8728    0.0014 C   0  0  0  0  0  4           0  0  0
   -7.1945   -0.2305    3.1034 C   0  0  0  0  0  4           0  0  0
   -4.7264   -0.1016    7.3796 C   0  0  0  0  0  4           0  0  0
   -7.6645    1.1702    2.7276 C   0  0  0  0  0  4           0  0  0
   -6.3290   -0.1021   -0.9634 C   0  0  0  0  0  4           0  0  0
    2.2298    6.7308   -1.1276 C   0  0  0  0  0  4           0  0  0
   -8.7992    1.1614    1.7137 C   0  0  0  0  0  4           0  0  0
  1  2  2  0     0  0
  1  3  2  0     0  0
  1 10  1  0     0  0
  1 12  1  0     0  0
  4 13  2  0     0  0
  5 14  1  0     0  0
  5 23  1  0     0  0
  6  7  1  0     0  0
  6 16  1  0     0  0
  6 17  1  0     0  0
  7 15  1  0     0  0
  8 13  1  0     0  0
  8 15  2  0     0  0
  9 16  2  0     0  0
  9 18  1  0     0  0
 10 24  1  0     0  0
 10 25  1  0     0  0
 11 26  1  0     0  0
 11 27  1  0     0  0
 11 28  1  0     0  0
 12 20  1  0     0  0
 12 21  2  0     0  0
 13 17  1  0     0  0
 14 19  1  0     0  0
 14 22  2  0     0  0
 15 19  1  0     0  0
 16 29  1  0     0  0
 17 18  2  0     0  0
 18 30  1  0     0  0
 19 20  2  0     0  0
 21 22  1  0     0  0
 23 32  1  0     0  0
 24 26  1  0     0  0
 25 27  1  0     0  0
 28 33  1  0     0  0
 29 31  1  0     0  0
 31 34  1  0     0  0
M  END
> <standard_type>
pIC50

> <# Confs.>
25

> <canonical_smiles>
CCN1CCN(S(C2=CC=C(OCC)C(C(NN3C4=C(C)N=C3CCC)=NC4=O)=C2)(=O)=O)CC1

> <standard_relation>
=

> <Publication_ID>
nan

> <predicted_activity_value>
nan

> <actual_activity_value>
-1.1072099696478683

> <Compound>
Vardenafil

> <standard_units>
uM

> hash
535501735745654877

$$$$
53
XXILIB    08252103503D 0   0.00000     0.00000

 34 37  0     1  0            999 V2000
    1.7654   -0.0000    0.0000 S   0  0  2  0  0  6           0  0  0
    2.1890    0.5759   -1.2625 O   0  0  0  0  0  2           0  0  0
    2.2082    0.5812    1.2538 O   0  0  0  0  0  2           0  0  0
   -1.8839   -0.0042    5.8799 O   0  0  0  0  0  2           0  0  0
   -4.1646   -0.0760    0.0390 O   0  0  0  0  0  2           0  0  0
   -4.7600   -0.1350    3.7501 N   0  0  0  0  0  3           0  0  0
   -4.1779   -0.1219    2.5207 N   0  0  0  0  0  3           0  0  0
   -2.0334   -0.0251    3.5888 N   0  0  0  0  0  3           0  0  0
   -6.2223   -0.1825    5.4062 N   0  0  0  0  0  3           0  0  0
    2.1095   -1.6836    0.0000 N   0  0  1  0  0  3           0  0  0
    2.1321   -4.5680   -0.0776 N   0  0  1  0  0  3           0  0  0
    0.0000    0.0000    0.0000 C   0  0  0  0  0  4           0  0  0
   -2.5743   -0.0394    4.8674 C   0  0  0  0  0  4           0  0  0
   -2.7999   -0.0820   -0.0194 C   0  0  0  0  0  4           0  0  0
   -2.7930   -0.0643    2.5217 C   0  0  0  0  0  4           0  0  0
   -6.0879   -0.1851    4.0934 C   0  0  0  0  0  4           0  0  0
   -4.0163   -0.0980    4.8966 C   0  0  0  0  0  4           0  0  0
   -4.9436   -0.1278    5.9187 C   0  0  0  0  0  4           0  0  0
   -2.0974   -0.0444    1.2015 C   0  0  0  0  0  4           0  0  0
   -0.6945   -0.0000    1.2080 C   0  0  0  0  0  4           0  0  0
   -0.6790   -0.0469   -1.2138 C   0  0  0  0  0  4           0  0  0
   -2.0751   -0.0814   -1.2210 C   0  0  0  0  0  4           0  0  0
   -4.8335   -0.1150   -1.2218 C   0  0  0  0  0  4           0  0  0
    1.5966   -2.4863    1.1489 C   0  0  0  0  0  4           0  0  0
    1.9253   -2.4171   -1.2869 C   0  0  0  0  0  4           0  0  0
    2.3184   -3.8330    1.1839 C   0  0  0  0  0  4           0  0  0
    2.6343   -3.7695   -1.2081 C   0  0  0  0  0  4           0  0  0
    2.7913   -5.8728   -0.0014 C   0  0  0  0  0  4           0  0  0
   -7.1945   -0.2305    3.1034 C   0  0  0  0  0  4           0  0  0
   -4.7264   -0.1016    7.3796 C   0  0  0  0  0  4           0  0  0
   -7.6645    1.1702    2.7276 C   0  0  0  0  0  4           0  0  0
   -6.3290   -0.1021   -0.9634 C   0  0  0  0  0  4           0  0  0
    2.2298   -6.7308    1.1276 C   0  0  0  0  0  4           0  0  0
   -8.1794    1.9616    3.9211 C   0  0  0  0  0  4           0  0  0
  1  2  2  0     0  0
  1  3  2  0     0  0
  1 10  1  0     0  0
  1 12  1  0     0  0
  4 13  2  0     0  0
  5 14  1  0     0  0
  5 23  1  0     0  0
  6  7  1  0     0  0
  6 16  1  0     0  0
  6 17  1  0     0  0
  7 15  1  0     0  0
  8 13  1  0     0  0
  8 15  2  0     0  0
  9 16  2  0     0  0
  9 18  1  0     0  0
 10 24  1  0     0  0
 10 25  1  0     0  0
 11 26  1  0     0  0
 11 27  1  0     0  0
 11 28  1  0     0  0
 12 20  1  0     0  0
 12 21  2  0     0  0
 13 17  1  0     0  0
 14 19  1  0     0  0
 14 22  2  0     0  0
 15 19  1  0     0  0
 16 29  1  0     0  0
 17 18  2  0     0  0
 18 30  1  0     0  0
 19 20  2  0     0  0
 21 22  1  0     0  0
 23 32  1  0     0  0
 24 26  1  0     0  0
 25 27  1  0     0  0
 28 33  1  0     0  0
 29 31  1  0     0  0
 31 34  1  0     0  0
M  END
> <standard_type>
pIC50

> <# Confs.>
25

> <canonical_smiles>
CCN1CCN(S(C2=CC=C(OCC)C(C(NN3C4=C(C)N=C3CCC)=NC4=O)=C2)(=O)=O)CC1

> <standard_relation>
=

> <Publication_ID>
nan

> <predicted_activity_value>
nan

> <actual_activity_value>
-1.1072099696478683

> <Compound>
Vardenafil

> <standard_units>
uM

> hash
535501735745654877

$$$$
53
XXILIB    08252103503D 0   0.00000     0.00000

 34 37  0     1  0            999 V2000
    1.7654   -0.0000    0.0000 S   0  0  2  0  0  6           0  0  0
    2.1890    0.5759   -1.2625 O   0  0  0  0  0  2           0  0  0
    2.2082    0.5812    1.2538 O   0  0  0  0  0  2           0  0  0
   -1.8839   -0.0042    5.8799 O   0  0  0  0  0  2           0  0  0
   -4.1646   -0.0760    0.0390 O   0  0  0  0  0  2           0  0  0
   -4.7600   -0.1350    3.7501 N   0  0  0  0  0  3           0  0  0
   -4.1779   -0.1219    2.5207 N   0  0  0  0  0  3           0  0  0
   -2.0334   -0.0251    3.5888 N   0  0  0  0  0  3           0  0  0
   -6.2223   -0.1825    5.4062 N   0  0  0  0  0  3           0  0  0
    2.1095   -1.6836    0.0000 N   0  0  1  0  0  3           0  0  0
    2.1321   -4.5680   -0.0776 N   0  0  1  0  0  3           0  0  0
    0.0000    0.0000    0.0000 C   0  0  0  0  0  4           0  0  0
   -2.5743   -0.0394    4.8674 C   0  0  0  0  0  4           0  0  0
   -2.7999   -0.0820   -0.0194 C   0  0  0  0  0  4           0  0  0
   -2.7930   -0.0643    2.5217 C   0  0  0  0  0  4           0  0  0
   -6.0879   -0.1851    4.0934 C   0  0  0  0  0  4           0  0  0
   -4.0163   -0.0980    4.8966 C   0  0  0  0  0  4           0  0  0
   -4.9436   -0.1278    5.9187 C   0  0  0  0  0  4           0  0  0
   -2.0974   -0.0444    1.2015 C   0  0  0  0  0  4           0  0  0
   -0.6945   -0.0000    1.2080 C   0  0  0  0  0  4           0  0  0
   -0.6790   -0.0469   -1.2138 C   0  0  0  0  0  4           0  0  0
   -2.0751   -0.0814   -1.2210 C   0  0  0  0  0  4           0  0  0
   -4.8335   -0.1150   -1.2218 C   0  0  0  0  0  4           0  0  0
    1.5966   -2.4863    1.1489 C   0  0  0  0  0  4           0  0  0
    1.9253   -2.4171   -1.2869 C   0  0  0  0  0  4           0  0  0
    2.3184   -3.8330    1.1839 C   0  0  0  0  0  4           0  0  0
    2.6343   -3.7695   -1.2081 C   0  0  0  0  0  4           0  0  0
    2.7913   -5.8728   -0.0014 C   0  0  0  0  0  4           0  0  0
   -7.1945   -0.2305    3.1034 C   0  0  0  0  0  4           0  0  0
   -4.7264   -0.1016    7.3796 C   0  0  0  0  0  4           0  0  0
   -7.5554   -1.6653    2.7358 C   0  0  0  0  0  4           0  0  0
   -6.3290   -0.1021   -0.9634 C   0  0  0  0  0  4           0  0  0
    2.2298   -6.7308    1.1276 C   0  0  0  0  0  4           0  0  0
   -8.6873   -1.7495    1.7220 C   0  0  0  0  0  4           0  0  0
  1  2  2  0     0  0
  1  3  2  0     0  0
  1 10  1  0     0  0
  1 12  1  0     0  0
  4 13  2  0     0  0
  5 14  1  0     0  0
  5 23  1  0     0  0
  6  7  1  0     0  0
  6 16  1  0     0  0
  6 17  1  0     0  0
  7 15  1  0     0  0
  8 13  1  0     0  0
  8 15  2  0     0  0
  9 16  2  0     0  0
  9 18  1  0     0  0
 10 24  1  0     0  0
 10 25  1  0     0  0
 11 26  1  0     0  0
 11 27  1  0     0  0
 11 28  1  0     0  0
 12 20  1  0     0  0
 12 21  2  0     0  0
 13 17  1  0     0  0
 14 19  1  0     0  0
 14 22  2  0     0  0
 15 19  1  0     0  0
 16 29  1  0     0  0
 17 18  2  0     0  0
 18 30  1  0     0  0
 19 20  2  0     0  0
 21 22  1  0     0  0
 23 32  1  0     0  0
 24 26  1  0     0  0
 25 27  1  0     0  0
 28 33  1  0     0  0
 29 31  1  0     0  0
 31 34  1  0     0  0
M  END
> <standard_type>
pIC50

> <# Confs.>
25

> <canonical_smiles>
CCN1CCN(S(C2=CC=C(OCC)C(C(NN3C4=C(C)N=C3CCC)=NC4=O)=C2)(=O)=O)CC1

> <standard_relation>
=

> <Publication_ID>
nan

> <predicted_activity_value>
nan

> <actual_activity_value>
-1.1072099696478683

> <Compound>
Vardenafil

> <standard_units>
uM

> hash
535501735745654877

$$$$
53
XXILIB    08252103503D 0   0.00000     0.00000

 34 37  0     1  0            999 V2000
    1.7654    0.0000    0.0000 S   0  0  2  0  0  6           0  0  0
    2.1890   -0.5759    1.2625 O   0  0  0  0  0  2           0  0  0
    2.2082   -0.5812   -1.2538 O   0  0  0  0  0  2           0  0  0
   -2.1157   -1.2016    5.7397 O   0  0  0  0  0  2           0  0  0
   -4.1646   -0.0760    0.0390 O   0  0  0  0  0  2           0  0  0
   -4.6448    0.4546    3.8197 N   0  0  0  0  0  3           0  0  0
   -4.0581    0.4974    2.5931 N   0  0  0  0  0  3           0  0  0
   -2.1475   -0.6161    3.5198 N   0  0  0  0  0  3           0  0  0
   -6.0552    0.6705    5.5071 N   0  0  0  0  0  3           0  0  0
    2.1095    1.6836    0.0000 N   0  0  1  0  0  3           0  0  0
    2.1321    4.5680    0.0776 N   0  0  1  0  0  3           0  0  0
    0.0000    0.0000   -0.0000 C   0  0  0  0  0  4           0  0  0
   -2.7002   -0.6896    4.7913 C   0  0  0  0  0  4           0  0  0
   -2.7999   -0.0820   -0.0194 C   0  0  0  0  0  4           0  0  0
   -2.7930   -0.0643    2.5217 C   0  0  0  0  0  4           0  0  0
   -5.8723    0.9169    4.2236 C   0  0  0  0  0  4           0  0  0
   -4.0184   -0.1107    4.8953 C   0  0  0  0  0  4           0  0  0
   -4.9113    0.0330    5.9382 C   0  0  0  0  0  4           0  0  0
   -2.0974   -0.0444    1.2015 C   0  0  0  0  0  4           0  0  0
   -0.6945    0.0000    1.2080 C   0  0  0  0  0  4           0  0  0
   -0.6790   -0.0469   -1.2138 C   0  0  0  0  0  4           0  0  0
   -2.0751   -0.0814   -1.2210 C   0  0  0  0  0  4           0  0  0
   -4.8280   -0.7535   -1.0284 C   0  0  0  0  0  4           0  0  0
    1.5966    2.4863   -1.1489 C   0  0  0  0  0  4           0  0  0
    1.9253    2.4171    1.2869 C   0  0  0  0  0  4           0  0  0
    2.3184    3.8330   -1.1839 C   0  0  0  0  0  4           0  0  0
    2.6343    3.7695    1.2081 C   0  0  0  0  0  4           0  0  0
    2.7913    5.8728    0.0014 C   0  0  0  0  0  4           0  0  0
   -6.8348    1.5984    3.3204 C   0  0  0  0  0  4           0  0  0
   -4.7763   -0.3829    7.3491 C   0  0  0  0  0  4           0  0  0
   -7.7759    0.6014    2.6537 C   0  0  0  0  0  4           0  0  0
   -6.1397   -1.3016   -0.4968 C   0  0  0  0  0  4           0  0  0
    2.2298    6.7308   -1.1276 C   0  0  0  0  0  4           0  0  0
   -8.7771    1.2660    1.7201 C   0  0  0  0  0  4           0  0  0
  1  2  2  0     0  0
  1  3  2  0     0  0
  1 10  1  0     0  0
  1 12  1  0     0  0
  4 13  2  0     0  0
  5 14  1  0     0  0
  5 23  1  0     0  0
  6  7  1  0     0  0
  6 16  1  0     0  0
  6 17  1  0     0  0
  7 15  1  0     0  0
  8 13  1  0     0  0
  8 15  2  0     0  0
  9 16  2  0     0  0
  9 18  1  0     0  0
 10 24  1  0     0  0
 10 25  1  0     0  0
 11 26  1  0     0  0
 11 27  1  0     0  0
 11 28  1  0     0  0
 12 20  1  0     0  0
 12 21  2  0     0  0
 13 17  1  0     0  0
 14 19  1  0     0  0
 14 22  2  0     0  0
 15 19  1  0     0  0
 16 29  1  0     0  0
 17 18  2  0     0  0
 18 30  1  0     0  0
 19 20  2  0     0  0
 21 22  1  0     0  0
 23 32  1  0     0  0
 24 26  1  0     0  0
 25 27  1  0     0  0
 28 33  1  0     0  0
 29 31  1  0     0  0
 31 34  1  0     0  0
M  END
> <standard_type>
pIC50

> <# Confs.>
25

> <canonical_smiles>
CCN1CCN(S(C2=CC=C(OCC)C(C(NN3C4=C(C)N=C3CCC)=NC4=O)=C2)(=O)=O)CC1

> <standard_relation>
=

> <Publication_ID>
nan

> <predicted_activity_value>
nan

> <actual_activity_value>
-1.1072099696478683

> <Compound>
Vardenafil

> <standard_units>
uM

> hash
535501735745654877

$$$$
53
XXILIB    08252103503D 0   0.00000     0.00000

 34 37  0     1  0            999 V2000
    1.7654   -0.0000    0.0000 S   0  0  2  0  0  6           0  0  0
    2.1890    0.5759   -1.2625 O   0  0  0  0  0  2           0  0  0
    2.2082    0.5812    1.2538 O   0  0  0  0  0  2           0  0  0
   -2.1157   -1.2016    5.7397 O   0  0  0  0  0  2           0  0  0
   -4.1646   -0.0760    0.0390 O   0  0  0  0  0  2           0  0  0
   -4.6448    0.4546    3.8197 N   0  0  0  0  0  3           0  0  0
   -4.0581    0.4974    2.5931 N   0  0  0  0  0  3           0  0  0
   -2.1475   -0.6161    3.5198 N   0  0  0  0  0  3           0  0  0
   -6.0552    0.6705    5.5071 N   0  0  0  0  0  3           0  0  0
    2.1095   -1.6836    0.0000 N   0  0  1  0  0  3           0  0  0
    2.1321   -4.5680   -0.0776 N   0  0  1  0  0  3           0  0  0
    0.0000    0.0000   -0.0000 C   0  0  0  0  0  4           0  0  0
   -2.7002   -0.6896    4.7913 C   0  0  0  0  0  4           0  0  0
   -2.7999   -0.0820   -0.0194 C   0  0  0  0  0  4           0  0  0
   -2.7930   -0.0643    2.5217 C   0  0  0  0  0  4           0  0  0
   -5.8723    0.9169    4.2236 C   0  0  0  0  0  4           0  0  0
   -4.0184   -0.1107    4.8953 C   0  0  0  0  0  4           0  0  0
   -4.9113    0.0330    5.9382 C   0  0  0  0  0  4           0  0  0
   -2.0974   -0.0444    1.2015 C   0  0  0  0  0  4           0  0  0
   -0.6945    0.0000    1.2080 C   0  0  0  0  0  4           0  0  0
   -0.6790   -0.0469   -1.2138 C   0  0  0  0  0  4           0  0  0
   -2.0751   -0.0814   -1.2210 C   0  0  0  0  0  4           0  0  0
   -4.8335   -0.1150   -1.2218 C   0  0  0  0  0  4           0  0  0
    1.5966   -2.4863    1.1489 C   0  0  0  0  0  4           0  0  0
    1.9253   -2.4171   -1.2869 C   0  0  0  0  0  4           0  0  0
    2.3184   -3.8330    1.1839 C   0  0  0  0  0  4           0  0  0
    2.6343   -3.7695   -1.2081 C   0  0  0  0  0  4           0  0  0
    2.7913   -5.8728   -0.0014 C   0  0  0  0  0  4           0  0  0
   -6.8348    1.5984    3.3204 C   0  0  0  0  0  4           0  0  0
   -4.7763   -0.3829    7.3491 C   0  0  0  0  0  4           0  0  0
   -7.7759    0.6014    2.6537 C   0  0  0  0  0  4           0  0  0
   -6.3290   -0.1021   -0.9634 C   0  0  0  0  0  4           0  0  0
    2.6248   -6.6724   -1.2894 C   0  0  0  0  0  4           0  0  0
   -8.6036   -0.1915    3.6547 C   0  0  0  0  0  4           0  0  0
  1  2  2  0     0  0
  1  3  2  0     0  0
  1 10  1  0     0  0
  1 12  1  0     0  0
  4 13  2  0     0  0
  5 14  1  0     0  0
  5 23  1  0     0  0
  6  7  1  0     0  0
  6 16  1  0     0  0
  6 17  1  0     0  0
  7 15  1  0     0  0
  8 13  1  0     0  0
  8 15  2  0     0  0
  9 16  2  0     0  0
  9 18  1  0     0  0
 10 24  1  0     0  0
 10 25  1  0     0  0
 11 26  1  0     0  0
 11 27  1  0     0  0
 11 28  1  0     0  0
 12 20  1  0     0  0
 12 21  2  0     0  0
 13 17  1  0     0  0
 14 19  1  0     0  0
 14 22  2  0     0  0
 15 19  1  0     0  0
 16 29  1  0     0  0
 17 18  2  0     0  0
 18 30  1  0     0  0
 19 20  2  0     0  0
 21 22  1  0     0  0
 23 32  1  0     0  0
 24 26  1  0     0  0
 25 27  1  0     0  0
 28 33  1  0     0  0
 29 31  1  0     0  0
 31 34  1  0     0  0
M  END
> <standard_type>
pIC50

> <# Confs.>
25

> <canonical_smiles>
CCN1CCN(S(C2=CC=C(OCC)C(C(NN3C4=C(C)N=C3CCC)=NC4=O)=C2)(=O)=O)CC1

> <standard_relation>
=

> <Publication_ID>
nan

> <predicted_activity_value>
nan

> <actual_activity_value>
-1.1072099696478683

> <Compound>
Vardenafil

> <standard_units>
uM

> hash
535501735745654877

$$$$
53
XXILIB    08252103503D 0   0.00000     0.00000

 34 37  0     1  0            999 V2000
    1.7654    0.0000    0.0000 S   0  0  2  0  0  6           0  0  0
    2.1890   -0.5759    1.2625 O   0  0  0  0  0  2           0  0  0
    2.2082   -0.5812   -1.2538 O   0  0  0  0  0  2           0  0  0
   -2.1157   -1.2016    5.7397 O   0  0  0  0  0  2           0  0  0
   -4.1646   -0.0760    0.0390 O   0  0  0  0  0  2           0  0  0
   -4.6448    0.4546    3.8197 N   0  0  0  0  0  3           0  0  0
   -4.0581    0.4974    2.5931 N   0  0  0  0  0  3           0  0  0
   -2.1475   -0.6161    3.5198 N   0  0  0  0  0  3           0  0  0
   -6.0552    0.6705    5.5071 N   0  0  0  0  0  3           0  0  0
    2.1095    1.6836    0.0000 N   0  0  1  0  0  3           0  0  0
    2.1321    4.5680    0.0776 N   0  0  1  0  0  3           0  0  0
    0.0000    0.0000   -0.0000 C   0  0  0  0  0  4           0  0  0
   -2.7002   -0.6896    4.7913 C   0  0  0  0  0  4           0  0  0
   -2.7999   -0.0820   -0.0194 C   0  0  0  0  0  4           0  0  0
   -2.7930   -0.0643    2.5217 C   0  0  0  0  0  4           0  0  0
   -5.8723    0.9169    4.2236 C   0  0  0  0  0  4           0  0  0
   -4.0184   -0.1107    4.8953 C   0  0  0  0  0  4           0  0  0
   -4.9113    0.0330    5.9382 C   0  0  0  0  0  4           0  0  0
   -2.0974   -0.0444    1.2015 C   0  0  0  0  0  4           0  0  0
   -0.6945    0.0000    1.2080 C   0  0  0  0  0  4           0  0  0
   -0.6790   -0.0469   -1.2138 C   0  0  0  0  0  4           0  0  0
   -2.0751   -0.0814   -1.2210 C   0  0  0  0  0  4           0  0  0
   -4.8280   -0.7535   -1.0284 C   0  0  0  0  0  4           0  0  0
    1.5966    2.4863   -1.1489 C   0  0  0  0  0  4           0  0  0
    1.9253    2.4171    1.2869 C   0  0  0  0  0  4           0  0  0
    2.3184    3.8330   -1.1839 C   0  0  0  0  0  4           0  0  0
    2.6343    3.7695    1.2081 C   0  0  0  0  0  4           0  0  0
    2.7913    5.8728    0.0014 C   0  0  0  0  0  4           0  0  0
   -6.8348    1.5984    3.3204 C   0  0  0  0  0  4           0  0  0
   -4.7763   -0.3829    7.3491 C   0  0  0  0  0  4           0  0  0
   -6.6166    3.1072    3.3090 C   0  0  0  0  0  4           0  0  0
   -6.1397   -1.3016   -0.4968 C   0  0  0  0  0  4           0  0  0
    2.2298    6.7308   -1.1276 C   0  0  0  0  0  4           0  0  0
   -7.5870    3.8384    2.3927 C   0  0  0  0  0  4           0  0  0
  1  2  2  0     0  0
  1  3  2  0     0  0
  1 10  1  0     0  0
  1 12  1  0     0  0
  4 13  2  0     0  0
  5 14  1  0     0  0
  5 23  1  0     0  0
  6  7  1  0     0  0
  6 16  1  0     0  0
  6 17  1  0     0  0
  7 15  1  0     0  0
  8 13  1  0     0  0
  8 15  2  0     0  0
  9 16  2  0     0  0
  9 18  1  0     0  0
 10 24  1  0     0  0
 10 25  1  0     0  0
 11 26  1  0     0  0
 11 27  1  0     0  0
 11 28  1  0     0  0
 12 20  1  0     0  0
 12 21  2  0     0  0
 13 17  1  0     0  0
 14 19  1  0     0  0
 14 22  2  0     0  0
 15 19  1  0     0  0
 16 29  1  0     0  0
 17 18  2  0     0  0
 18 30  1  0     0  0
 19 20  2  0     0  0
 21 22  1  0     0  0
 23 32  1  0     0  0
 24 26  1  0     0  0
 25 27  1  0     0  0
 28 33  1  0     0  0
 29 31  1  0     0  0
 31 34  1  0     0  0
M  END
> <standard_type>
pIC50

> <# Confs.>
25

> <canonical_smiles>
CCN1CCN(S(C2=CC=C(OCC)C(C(NN3C4=C(C)N=C3CCC)=NC4=O)=C2)(=O)=O)CC1

> <standard_relation>
=

> <Publication_ID>
nan

> <predicted_activity_value>
nan

> <actual_activity_value>
-1.1072099696478683

> <Compound>
Vardenafil

> <standard_units>
uM

> hash
535501735745654877

$$$$
53
XXILIB    08252103503D 0   0.00000     0.00000

 34 37  0     1  0            999 V2000
    1.7654    0.0000    0.0000 S   0  0  2  0  0  6           0  0  0
    2.1890   -0.5759    1.2625 O   0  0  0  0  0  2           0  0  0
    2.2082   -0.5812   -1.2538 O   0  0  0  0  0  2           0  0  0
   -2.2136    1.1680    5.7238 O   0  0  0  0  0  2           0  0  0
   -4.1646   -0.0760    0.0390 O   0  0  0  0  0  2           0  0  0
   -4.5986   -0.7128    3.8264 N   0  0  0  0  0  3           0  0  0
   -4.0072   -0.7280    2.6015 N   0  0  0  0  0  3           0  0  0
   -2.1964    0.5534    3.5116 N   0  0  0  0  0  3           0  0  0
   -5.9891   -1.0185    5.5165 N   0  0  0  0  0  3           0  0  0
    2.1095    1.6836    0.0000 N   0  0  1  0  0  3           0  0  0
    2.1321    4.5680    0.0776 N   0  0  1  0  0  3           0  0  0
    0.0000    0.0000    0.0000 C   0  0  0  0  0  4           0  0  0
   -2.7535    0.5972    4.7825 C   0  0  0  0  0  4           0  0  0
   -2.7999   -0.0820   -0.0194 C   0  0  0  0  0  4           0  0  0
   -2.7930   -0.0643    2.5217 C   0  0  0  0  0  4           0  0  0
   -5.7863   -1.2651    4.2360 C   0  0  0  0  0  4           0  0  0
   -4.0201   -0.0858    4.8947 C   0  0  0  0  0  4           0  0  0
   -4.9003   -0.2859    5.9392 C   0  0  0  0  0  4           0  0  0
   -2.0974   -0.0444    1.2015 C   0  0  0  0  0  4           0  0  0
   -0.6945    0.0000    1.2080 C   0  0  0  0  0  4           0  0  0
   -0.6790   -0.0469   -1.2138 C   0  0  0  0  0  4           0  0  0
   -2.0751   -0.0814   -1.2210 C   0  0  0  0  0  4           0  0  0
   -4.8335   -0.1150   -1.2218 C   0  0  0  0  0  4           0  0  0
    1.5966    2.4863   -1.1489 C   0  0  0  0  0  4           0  0  0
    1.9253    2.4171    1.2869 C   0  0  0  0  0  4           0  0  0
    2.3184    3.8330   -1.1839 C   0  0  0  0  0  4           0  0  0
    2.6343    3.7695    1.2081 C   0  0  0  0  0  4           0  0  0
    2.7913    5.8728    0.0014 C   0  0  0  0  0  4           0  0  0
   -6.6956   -2.0240    3.3393 C   0  0  0  0  0  4           0  0  0
   -4.8079    0.1712    7.3407 C   0  0  0  0  0  4           0  0  0
   -7.7114   -1.1062    2.6687 C   0  0  0  0  0  4           0  0  0
   -6.3290   -0.1021   -0.9634 C   0  0  0  0  0  4           0  0  0
    2.6248    6.6724    1.2894 C   0  0  0  0  0  4           0  0  0
   -8.5956   -0.3727    3.6667 C   0  0  0  0  0  4           0  0  0
  1  2  2  0     0  0
  1  3  2  0     0  0
  1 10  1  0     0  0
  1 12  1  0     0  0
  4 13  2  0     0  0
  5 14  1  0     0  0
  5 23  1  0     0  0
  6  7  1  0     0  0
  6 16  1  0     0  0
  6 17  1  0     0  0
  7 15  1  0     0  0
  8 13  1  0     0  0
  8 15  2  0     0  0
  9 16  2  0     0  0
  9 18  1  0     0  0
 10 24  1  0     0  0
 10 25  1  0     0  0
 11 26  1  0     0  0
 11 27  1  0     0  0
 11 28  1  0     0  0
 12 20  1  0     0  0
 12 21  2  0     0  0
 13 17  1  0     0  0
 14 19  1  0     0  0
 14 22  2  0     0  0
 15 19  1  0     0  0
 16 29  1  0     0  0
 17 18  2  0     0  0
 18 30  1  0     0  0
 19 20  2  0     0  0
 21 22  1  0     0  0
 23 32  1  0     0  0
 24 26  1  0     0  0
 25 27  1  0     0  0
 28 33  1  0     0  0
 29 31  1  0     0  0
 31 34  1  0     0  0
M  END
> <standard_type>
pIC50

> <# Confs.>
25

> <canonical_smiles>
CCN1CCN(S(C2=CC=C(OCC)C(C(NN3C4=C(C)N=C3CCC)=NC4=O)=C2)(=O)=O)CC1

> <standard_relation>
=

> <Publication_ID>
nan

> <predicted_activity_value>
nan

> <actual_activity_value>
-1.1072099696478683

> <Compound>
Vardenafil

> <standard_units>
uM

> hash
535501735745654877

$$$$
53
XXILIB    08252103503D 0   0.00000     0.00000

 34 37  0     1  0            999 V2000
    1.7654    0.0000    0.0000 S   0  0  2  0  0  6           0  0  0
    2.1890   -0.5759    1.2625 O   0  0  0  0  0  2           0  0  0
    2.2082   -0.5812   -1.2538 O   0  0  0  0  0  2           0  0  0
   -1.8839   -0.0042    5.8799 O   0  0  0  0  0  2           0  0  0
   -4.1646   -0.0760    0.0390 O   0  0  0  0  0  2           0  0  0
   -4.7600   -0.1350    3.7501 N   0  0  0  0  0  3           0  0  0
   -4.1779   -0.1219    2.5207 N   0  0  0  0  0  3           0  0  0
   -2.0334   -0.0251    3.5888 N   0  0  0  0  0  3           0  0  0
   -6.2223   -0.1825    5.4062 N   0  0  0  0  0  3           0  0  0
    2.1095    1.6836    0.0000 N   0  0  1  0  0  3           0  0  0
    2.1321    4.5680    0.0776 N   0  0  1  0  0  3           0  0  0
    0.0000    0.0000    0.0000 C   0  0  0  0  0  4           0  0  0
   -2.5743   -0.0394    4.8674 C   0  0  0  0  0  4           0  0  0
   -2.7999   -0.0820   -0.0194 C   0  0  0  0  0  4           0  0  0
   -2.7930   -0.0643    2.5217 C   0  0  0  0  0  4           0  0  0
   -6.0879   -0.1851    4.0934 C   0  0  0  0  0  4           0  0  0
   -4.0163   -0.0980    4.8966 C   0  0  0  0  0  4           0  0  0
   -4.9436   -0.1278    5.9187 C   0  0  0  0  0  4           0  0  0
   -2.0974   -0.0444    1.2015 C   0  0  0  0  0  4           0  0  0
   -0.6945   -0.0000    1.2080 C   0  0  0  0  0  4           0  0  0
   -0.6790   -0.0469   -1.2138 C   0  0  0  0  0  4           0  0  0
   -2.0751   -0.0814   -1.2210 C   0  0  0  0  0  4           0  0  0
   -4.8335   -0.1150   -1.2218 C   0  0  0  0  0  4           0  0  0
    1.5966    2.4863   -1.1489 C   0  0  0  0  0  4           0  0  0
    1.9253    2.4171    1.2869 C   0  0  0  0  0  4           0  0  0
    2.3184    3.8330   -1.1839 C   0  0  0  0  0  4           0  0  0
    2.6343    3.7695    1.2081 C   0  0  0  0  0  4           0  0  0
    2.7913    5.8728    0.0014 C   0  0  0  0  0  4           0  0  0
   -7.1945   -0.2305    3.1034 C   0  0  0  0  0  4           0  0  0
   -4.7264   -0.1016    7.3796 C   0  0  0  0  0  4           0  0  0
   -7.6645    1.1702    2.7276 C   0  0  0  0  0  4           0  0  0
   -6.3290   -0.1021   -0.9634 C   0  0  0  0  0  4           0  0  0
    2.6248    6.6724    1.2894 C   0  0  0  0  0  4           0  0  0
   -8.1794    1.9616    3.9211 C   0  0  0  0  0  4           0  0  0
  1  2  2  0     0  0
  1  3  2  0     0  0
  1 10  1  0     0  0
  1 12  1  0     0  0
  4 13  2  0     0  0
  5 14  1  0     0  0
  5 23  1  0     0  0
  6  7  1  0     0  0
  6 16  1  0     0  0
  6 17  1  0     0  0
  7 15  1  0     0  0
  8 13  1  0     0  0
  8 15  2  0     0  0
  9 16  2  0     0  0
  9 18  1  0     0  0
 10 24  1  0     0  0
 10 25  1  0     0  0
 11 26  1  0     0  0
 11 27  1  0     0  0
 11 28  1  0     0  0
 12 20  1  0     0  0
 12 21  2  0     0  0
 13 17  1  0     0  0
 14 19  1  0     0  0
 14 22  2  0     0  0
 15 19  1  0     0  0
 16 29  1  0     0  0
 17 18  2  0     0  0
 18 30  1  0     0  0
 19 20  2  0     0  0
 21 22  1  0     0  0
 23 32  1  0     0  0
 24 26  1  0     0  0
 25 27  1  0     0  0
 28 33  1  0     0  0
 29 31  1  0     0  0
 31 34  1  0     0  0
M  END
> <standard_type>
pIC50

> <# Confs.>
25

> <canonical_smiles>
CCN1CCN(S(C2=CC=C(OCC)C(C(NN3C4=C(C)N=C3CCC)=NC4=O)=C2)(=O)=O)CC1

> <standard_relation>
=

> <Publication_ID>
nan

> <predicted_activity_value>
nan

> <actual_activity_value>
-1.1072099696478683

> <Compound>
Vardenafil

> <standard_units>
uM

> hash
535501735745654877

$$$$
53
XXILIB    08252103503D 0   0.00000     0.00000

 34 37  0     1  0            999 V2000
    1.7654    0.0000    0.0000 S   0  0  2  0  0  6           0  0  0
    2.1890   -0.5759    1.2625 O   0  0  0  0  0  2           0  0  0
    2.2082   -0.5812   -1.2538 O   0  0  0  0  0  2           0  0  0
   -1.8839   -0.0042    5.8799 O   0  0  0  0  0  2           0  0  0
   -4.1646   -0.0760    0.0390 O   0  0  0  0  0  2           0  0  0
   -4.7600   -0.1350    3.7501 N   0  0  0  0  0  3           0  0  0
   -4.1779   -0.1219    2.5207 N   0  0  0  0  0  3           0  0  0
   -2.0334   -0.0251    3.5888 N   0  0  0  0  0  3           0  0  0
   -6.2223   -0.1825    5.4062 N   0  0  0  0  0  3           0  0  0
    2.1095    1.6836    0.0000 N   0  0  1  0  0  3           0  0  0
    2.1321    4.5680    0.0776 N   0  0  1  0  0  3           0  0  0
    0.0000    0.0000    0.0000 C   0  0  0  0  0  4           0  0  0
   -2.5743   -0.0394    4.8674 C   0  0  0  0  0  4           0  0  0
   -2.7999   -0.0820   -0.0194 C   0  0  0  0  0  4           0  0  0
   -2.7930   -0.0643    2.5217 C   0  0  0  0  0  4           0  0  0
   -6.0879   -0.1851    4.0934 C   0  0  0  0  0  4           0  0  0
   -4.0163   -0.0980    4.8966 C   0  0  0  0  0  4           0  0  0
   -4.9436   -0.1278    5.9187 C   0  0  0  0  0  4           0  0  0
   -2.0974   -0.0444    1.2015 C   0  0  0  0  0  4           0  0  0
   -0.6945   -0.0000    1.2080 C   0  0  0  0  0  4           0  0  0
   -0.6790   -0.0469   -1.2138 C   0  0  0  0  0  4           0  0  0
   -2.0751   -0.0814   -1.2210 C   0  0  0  0  0  4           0  0  0
   -4.8335   -0.1150   -1.2218 C   0  0  0  0  0  4           0  0  0
    1.5966    2.4863   -1.1489 C   0  0  0  0  0  4           0  0  0
    1.9253    2.4171    1.2869 C   0  0  0  0  0  4           0  0  0
    2.3184    3.8330   -1.1839 C   0  0  0  0  0  4           0  0  0
    2.6343    3.7695    1.2081 C   0  0  0  0  0  4           0  0  0
    2.7913    5.8728    0.0014 C   0  0  0  0  0  4           0  0  0
   -7.1945   -0.2305    3.1034 C   0  0  0  0  0  4           0  0  0
   -4.7264   -0.1016    7.3796 C   0  0  0  0  0  4           0  0  0
   -7.5554   -1.6653    2.7358 C   0  0  0  0  0  4           0  0  0
   -6.3290   -0.1021   -0.9634 C   0  0  0  0  0  4           0  0  0
    2.6248    6.6724    1.2894 C   0  0  0  0  0  4           0  0  0
   -8.6873   -1.7495    1.7220 C   0  0  0  0  0  4           0  0  0
  1  2  2  0     0  0
  1  3  2  0     0  0
  1 10  1  0     0  0
  1 12  1  0     0  0
  4 13  2  0     0  0
  5 14  1  0     0  0
  5 23  1  0     0  0
  6  7  1  0     0  0
  6 16  1  0     0  0
  6 17  1  0     0  0
  7 15  1  0     0  0
  8 13  1  0     0  0
  8 15  2  0     0  0
  9 16  2  0     0  0
  9 18  1  0     0  0
 10 24  1  0     0  0
 10 25  1  0     0  0
 11 26  1  0     0  0
 11 27  1  0     0  0
 11 28  1  0     0  0
 12 20  1  0     0  0
 12 21  2  0     0  0
 13 17  1  0     0  0
 14 19  1  0     0  0
 14 22  2  0     0  0
 15 19  1  0     0  0
 16 29  1  0     0  0
 17 18  2  0     0  0
 18 30  1  0     0  0
 19 20  2  0     0  0
 21 22  1  0     0  0
 23 32  1  0     0  0
 24 26  1  0     0  0
 25 27  1  0     0  0
 28 33  1  0     0  0
 29 31  1  0     0  0
 31 34  1  0     0  0
M  END
> <standard_type>
pIC50

> <# Confs.>
25

> <canonical_smiles>
CCN1CCN(S(C2=CC=C(OCC)C(C(NN3C4=C(C)N=C3CCC)=NC4=O)=C2)(=O)=O)CC1

> <standard_relation>
=

> <Publication_ID>
nan

> <predicted_activity_value>
nan

> <actual_activity_value>
-1.1072099696478683

> <Compound>
Vardenafil

> <standard_units>
uM

> hash
535501735745654877

$$$$
53
XXILIB    08252103503D 0   0.00000     0.00000

 34 37  0     1  0            999 V2000
    1.7654   -0.0000    0.0000 S   0  0  2  0  0  6           0  0  0
    2.1890    0.5759   -1.2625 O   0  0  0  0  0  2           0  0  0
    2.2082    0.5812    1.2538 O   0  0  0  0  0  2           0  0  0
   -2.1157   -1.2016    5.7397 O   0  0  0  0  0  2           0  0  0
   -4.1646   -0.0760    0.0390 O   0  0  0  0  0  2           0  0  0
   -4.6448    0.4546    3.8197 N   0  0  0  0  0  3           0  0  0
   -4.0581    0.4974    2.5931 N   0  0  0  0  0  3           0  0  0
   -2.1475   -0.6161    3.5198 N   0  0  0  0  0  3           0  0  0
   -6.0552    0.6705    5.5071 N   0  0  0  0  0  3           0  0  0
    2.1095   -1.6836    0.0000 N   0  0  1  0  0  3           0  0  0
    2.1321   -4.5680   -0.0776 N   0  0  1  0  0  3           0  0  0
    0.0000    0.0000   -0.0000 C   0  0  0  0  0  4           0  0  0
   -2.7002   -0.6896    4.7913 C   0  0  0  0  0  4           0  0  0
   -2.7999   -0.0820   -0.0194 C   0  0  0  0  0  4           0  0  0
   -2.7930   -0.0643    2.5217 C   0  0  0  0  0  4           0  0  0
   -5.8723    0.9169    4.2236 C   0  0  0  0  0  4           0  0  0
   -4.0184   -0.1107    4.8953 C   0  0  0  0  0  4           0  0  0
   -4.9113    0.0330    5.9382 C   0  0  0  0  0  4           0  0  0
   -2.0974   -0.0444    1.2015 C   0  0  0  0  0  4           0  0  0
   -0.6945    0.0000    1.2080 C   0  0  0  0  0  4           0  0  0
   -0.6790   -0.0469   -1.2138 C   0  0  0  0  0  4           0  0  0
   -2.0751   -0.0814   -1.2210 C   0  0  0  0  0  4           0  0  0
   -4.8335   -0.1150   -1.2218 C   0  0  0  0  0  4           0  0  0
    1.5966   -2.4863    1.1489 C   0  0  0  0  0  4           0  0  0
    1.9253   -2.4171   -1.2869 C   0  0  0  0  0  4           0  0  0
    2.3184   -3.8330    1.1839 C   0  0  0  0  0  4           0  0  0
    2.6343   -3.7695   -1.2081 C   0  0  0  0  0  4           0  0  0
    2.7913   -5.8728   -0.0014 C   0  0  0  0  0  4           0  0  0
   -6.8348    1.5984    3.3204 C   0  0  0  0  0  4           0  0  0
   -4.7763   -0.3829    7.3491 C   0  0  0  0  0  4           0  0  0
   -6.6166    3.1072    3.3090 C   0  0  0  0  0  4           0  0  0
   -6.3290   -0.1021   -0.9634 C   0  0  0  0  0  4           0  0  0
    2.6248   -6.6724   -1.2894 C   0  0  0  0  0  4           0  0  0
   -6.7849    3.7398    4.6827 C   0  0  0  0  0  4           0  0  0
  1  2  2  0     0  0
  1  3  2  0     0  0
  1 10  1  0     0  0
  1 12  1  0     0  0
  4 13  2  0     0  0
  5 14  1  0     0  0
  5 23  1  0     0  0
  6  7  1  0     0  0
  6 16  1  0     0  0
  6 17  1  0     0  0
  7 15  1  0     0  0
  8 13  1  0     0  0
  8 15  2  0     0  0
  9 16  2  0     0  0
  9 18  1  0     0  0
 10 24  1  0     0  0
 10 25  1  0     0  0
 11 26  1  0     0  0
 11 27  1  0     0  0
 11 28  1  0     0  0
 12 20  1  0     0  0
 12 21  2  0     0  0
 13 17  1  0     0  0
 14 19  1  0     0  0
 14 22  2  0     0  0
 15 19  1  0     0  0
 16 29  1  0     0  0
 17 18  2  0     0  0
 18 30  1  0     0  0
 19 20  2  0     0  0
 21 22  1  0     0  0
 23 32  1  0     0  0
 24 26  1  0     0  0
 25 27  1  0     0  0
 28 33  1  0     0  0
 29 31  1  0     0  0
 31 34  1  0     0  0
M  END
> <standard_type>
pIC50

> <# Confs.>
25

> <canonical_smiles>
CCN1CCN(S(C2=CC=C(OCC)C(C(NN3C4=C(C)N=C3CCC)=NC4=O)=C2)(=O)=O)CC1

> <standard_relation>
=

> <Publication_ID>
nan

> <predicted_activity_value>
nan

> <actual_activity_value>
-1.1072099696478683

> <Compound>
Vardenafil

> <standard_units>
uM

> hash
535501735745654877

$$$$
53
XXILIB    08252103503D 0   0.00000     0.00000

 34 37  0     1  0            999 V2000
    1.7654   -0.0000    0.0000 S   0  0  2  0  0  6           0  0  0
    2.1890    0.5759   -1.2625 O   0  0  0  0  0  2           0  0  0
    2.2082    0.5812    1.2538 O   0  0  0  0  0  2           0  0  0
   -1.8839   -0.0042    5.8799 O   0  0  0  0  0  2           0  0  0
   -4.1646   -0.0760    0.0390 O   0  0  0  0  0  2           0  0  0
   -4.7600   -0.1350    3.7501 N   0  0  0  0  0  3           0  0  0
   -4.1779   -0.1219    2.5207 N   0  0  0  0  0  3           0  0  0
   -2.0334   -0.0251    3.5888 N   0  0  0  0  0  3           0  0  0
   -6.2223   -0.1825    5.4062 N   0  0  0  0  0  3           0  0  0
    2.1095   -1.6836    0.0000 N   0  0  1  0  0  3           0  0  0
    2.1321   -4.5680   -0.0776 N   0  0  1  0  0  3           0  0  0
    0.0000    0.0000    0.0000 C   0  0  0  0  0  4           0  0  0
   -2.5743   -0.0394    4.8674 C   0  0  0  0  0  4           0  0  0
   -2.7999   -0.0820   -0.0194 C   0  0  0  0  0  4           0  0  0
   -2.7930   -0.0643    2.5217 C   0  0  0  0  0  4           0  0  0
   -6.0879   -0.1851    4.0934 C   0  0  0  0  0  4           0  0  0
   -4.0163   -0.0980    4.8966 C   0  0  0  0  0  4           0  0  0
   -4.9436   -0.1278    5.9187 C   0  0  0  0  0  4           0  0  0
   -2.0974   -0.0444    1.2015 C   0  0  0  0  0  4           0  0  0
   -0.6945   -0.0000    1.2080 C   0  0  0  0  0  4           0  0  0
   -0.6790   -0.0469   -1.2138 C   0  0  0  0  0  4           0  0  0
   -2.0751   -0.0814   -1.2210 C   0  0  0  0  0  4           0  0  0
   -4.8335   -0.1150   -1.2218 C   0  0  0  0  0  4           0  0  0
    1.5966   -2.4863    1.1489 C   0  0  0  0  0  4           0  0  0
    1.9253   -2.4171   -1.2869 C   0  0  0  0  0  4           0  0  0
    2.3184   -3.8330    1.1839 C   0  0  0  0  0  4           0  0  0
    2.6343   -3.7695   -1.2081 C   0  0  0  0  0  4           0  0  0
    2.7913   -5.8728   -0.0014 C   0  0  0  0  0  4           0  0  0
   -7.1945   -0.2305    3.1034 C   0  0  0  0  0  4           0  0  0
   -4.7264   -0.1016    7.3796 C   0  0  0  0  0  4           0  0  0
   -7.6645    1.1702    2.7276 C   0  0  0  0  0  4           0  0  0
   -6.3290   -0.1021   -0.9634 C   0  0  0  0  0  4           0  0  0
    2.6248   -6.6724   -1.2894 C   0  0  0  0  0  4           0  0  0
   -8.7992    1.1614    1.7137 C   0  0  0  0  0  4           0  0  0
  1  2  2  0     0  0
  1  3  2  0     0  0
  1 10  1  0     0  0
  1 12  1  0     0  0
  4 13  2  0     0  0
  5 14  1  0     0  0
  5 23  1  0     0  0
  6  7  1  0     0  0
  6 16  1  0     0  0
  6 17  1  0     0  0
  7 15  1  0     0  0
  8 13  1  0     0  0
  8 15  2  0     0  0
  9 16  2  0     0  0
  9 18  1  0     0  0
 10 24  1  0     0  0
 10 25  1  0     0  0
 11 26  1  0     0  0
 11 27  1  0     0  0
 11 28  1  0     0  0
 12 20  1  0     0  0
 12 21  2  0     0  0
 13 17  1  0     0  0
 14 19  1  0     0  0
 14 22  2  0     0  0
 15 19  1  0     0  0
 16 29  1  0     0  0
 17 18  2  0     0  0
 18 30  1  0     0  0
 19 20  2  0     0  0
 21 22  1  0     0  0
 23 32  1  0     0  0
 24 26  1  0     0  0
 25 27  1  0     0  0
 28 33  1  0     0  0
 29 31  1  0     0  0
 31 34  1  0     0  0
M  END
> <standard_type>
pIC50

> <# Confs.>
25

> <canonical_smiles>
CCN1CCN(S(C2=CC=C(OCC)C(C(NN3C4=C(C)N=C3CCC)=NC4=O)=C2)(=O)=O)CC1

> <standard_relation>
=

> <Publication_ID>
nan

> <predicted_activity_value>
nan

> <actual_activity_value>
-1.1072099696478683

> <Compound>
Vardenafil

> <standard_units>
uM

> hash
535501735745654877

$$$$
53
XXILIB    08252103503D 0   0.00000     0.00000

 34 37  0     1  0            999 V2000
    1.7654    0.0000    0.0000 S   0  0  2  0  0  6           0  0  0
    2.1890   -0.5759    1.2625 O   0  0  0  0  0  2           0  0  0
    2.2082   -0.5812   -1.2538 O   0  0  0  0  0  2           0  0  0
   -2.2136    1.1680    5.7238 O   0  0  0  0  0  2           0  0  0
   -4.1646   -0.0760    0.0390 O   0  0  0  0  0  2           0  0  0
   -4.5986   -0.7128    3.8264 N   0  0  0  0  0  3           0  0  0
   -4.0072   -0.7280    2.6015 N   0  0  0  0  0  3           0  0  0
   -2.1964    0.5534    3.5116 N   0  0  0  0  0  3           0  0  0
   -5.9891   -1.0185    5.5165 N   0  0  0  0  0  3           0  0  0
    2.1095    1.6836    0.0000 N   0  0  1  0  0  3           0  0  0
    2.1321    4.5680    0.0776 N   0  0  1  0  0  3           0  0  0
    0.0000    0.0000    0.0000 C   0  0  0  0  0  4           0  0  0
   -2.7535    0.5972    4.7825 C   0  0  0  0  0  4           0  0  0
   -2.7999   -0.0820   -0.0194 C   0  0  0  0  0  4           0  0  0
   -2.7930   -0.0643    2.5217 C   0  0  0  0  0  4           0  0  0
   -5.7863   -1.2651    4.2360 C   0  0  0  0  0  4           0  0  0
   -4.0201   -0.0858    4.8947 C   0  0  0  0  0  4           0  0  0
   -4.9003   -0.2859    5.9392 C   0  0  0  0  0  4           0  0  0
   -2.0974   -0.0444    1.2015 C   0  0  0  0  0  4           0  0  0
   -0.6945    0.0000    1.2080 C   0  0  0  0  0  4           0  0  0
   -0.6790   -0.0469   -1.2138 C   0  0  0  0  0  4           0  0  0
   -2.0751   -0.0814   -1.2210 C   0  0  0  0  0  4           0  0  0
   -4.8335   -0.1150   -1.2218 C   0  0  0  0  0  4           0  0  0
    1.5966    2.4863   -1.1489 C   0  0  0  0  0  4           0  0  0
    1.9253    2.4171    1.2869 C   0  0  0  0  0  4           0  0  0
    2.3184    3.8330   -1.1839 C   0  0  0  0  0  4           0  0  0
    2.6343    3.7695    1.2081 C   0  0  0  0  0  4           0  0  0
    2.7913    5.8728    0.0014 C   0  0  0  0  0  4           0  0  0
   -6.6956   -2.0240    3.3393 C   0  0  0  0  0  4           0  0  0
   -4.8079    0.1712    7.3407 C   0  0  0  0  0  4           0  0  0
   -6.3625   -3.5117    3.3366 C   0  0  0  0  0  4           0  0  0
   -6.3290   -0.1021   -0.9634 C   0  0  0  0  0  4           0  0  0
    2.6248    6.6724    1.2894 C   0  0  0  0  0  4           0  0  0
   -6.4792   -4.1467    4.7146 C   0  0  0  0  0  4           0  0  0
  1  2  2  0     0  0
  1  3  2  0     0  0
  1 10  1  0     0  0
  1 12  1  0     0  0
  4 13  2  0     0  0
  5 14  1  0     0  0
  5 23  1  0     0  0
  6  7  1  0     0  0
  6 16  1  0     0  0
  6 17  1  0     0  0
  7 15  1  0     0  0
  8 13  1  0     0  0
  8 15  2  0     0  0
  9 16  2  0     0  0
  9 18  1  0     0  0
 10 24  1  0     0  0
 10 25  1  0     0  0
 11 26  1  0     0  0
 11 27  1  0     0  0
 11 28  1  0     0  0
 12 20  1  0     0  0
 12 21  2  0     0  0
 13 17  1  0     0  0
 14 19  1  0     0  0
 14 22  2  0     0  0
 15 19  1  0     0  0
 16 29  1  0     0  0
 17 18  2  0     0  0
 18 30  1  0     0  0
 19 20  2  0     0  0
 21 22  1  0     0  0
 23 32  1  0     0  0
 24 26  1  0     0  0
 25 27  1  0     0  0
 28 33  1  0     0  0
 29 31  1  0     0  0
 31 34  1  0     0  0
M  END
> <standard_type>
pIC50

> <# Confs.>
25

> <canonical_smiles>
CCN1CCN(S(C2=CC=C(OCC)C(C(NN3C4=C(C)N=C3CCC)=NC4=O)=C2)(=O)=O)CC1

> <standard_relation>
=

> <Publication_ID>
nan

> <predicted_activity_value>
nan

> <actual_activity_value>
-1.1072099696478683

> <Compound>
Vardenafil

> <standard_units>
uM

> hash
535501735745654877

$$$$
53
XXILIB    08252103503D 0   0.00000     0.00000

 34 37  0     1  0            999 V2000
    1.7654   -0.0000    0.0000 S   0  0  2  0  0  6           0  0  0
    2.1890    0.5759   -1.2625 O   0  0  0  0  0  2           0  0  0
    2.2082    0.5812    1.2538 O   0  0  0  0  0  2           0  0  0
   -2.2136    1.1680    5.7238 O   0  0  0  0  0  2           0  0  0
   -4.1646   -0.0760    0.0390 O   0  0  0  0  0  2           0  0  0
   -4.5986   -0.7128    3.8264 N   0  0  0  0  0  3           0  0  0
   -4.0072   -0.7280    2.6015 N   0  0  0  0  0  3           0  0  0
   -2.1964    0.5534    3.5116 N   0  0  0  0  0  3           0  0  0
   -5.9891   -1.0185    5.5165 N   0  0  0  0  0  3           0  0  0
    2.1095   -1.6836    0.0000 N   0  0  1  0  0  3           0  0  0
    2.1321   -4.5680   -0.0776 N   0  0  1  0  0  3           0  0  0
    0.0000    0.0000    0.0000 C   0  0  0  0  0  4           0  0  0
   -2.7535    0.5972    4.7825 C   0  0  0  0  0  4           0  0  0
   -2.7999   -0.0820   -0.0194 C   0  0  0  0  0  4           0  0  0
   -2.7930   -0.0643    2.5217 C   0  0  0  0  0  4           0  0  0
   -5.7863   -1.2651    4.2360 C   0  0  0  0  0  4           0  0  0
   -4.0201   -0.0858    4.8947 C   0  0  0  0  0  4           0  0  0
   -4.9003   -0.2859    5.9392 C   0  0  0  0  0  4           0  0  0
   -2.0974   -0.0444    1.2015 C   0  0  0  0  0  4           0  0  0
   -0.6945    0.0000    1.2080 C   0  0  0  0  0  4           0  0  0
   -0.6790   -0.0469   -1.2138 C   0  0  0  0  0  4           0  0  0
   -2.0751   -0.0814   -1.2210 C   0  0  0  0  0  4           0  0  0
   -4.8335   -0.1150   -1.2218 C   0  0  0  0  0  4           0  0  0
    1.5966   -2.4863    1.1489 C   0  0  0  0  0  4           0  0  0
    1.9253   -2.4171   -1.2869 C   0  0  0  0  0  4           0  0  0
    2.3184   -3.8330    1.1839 C   0  0  0  0  0  4           0  0  0
    2.6343   -3.7695   -1.2081 C   0  0  0  0  0  4           0  0  0
    2.7913   -5.8728   -0.0014 C   0  0  0  0  0  4           0  0  0
   -6.6956   -2.0240    3.3393 C   0  0  0  0  0  4           0  0  0
   -4.8079    0.1712    7.3407 C   0  0  0  0  0  4           0  0  0
   -6.3625   -3.5117    3.3366 C   0  0  0  0  0  4           0  0  0
   -6.3290   -0.1021   -0.9634 C   0  0  0  0  0  4           0  0  0
    2.2298   -6.7308    1.1276 C   0  0  0  0  0  4           0  0  0
   -7.2757   -4.3208    2.4272 C   0  0  0  0  0  4           0  0  0
  1  2  2  0     0  0
  1  3  2  0     0  0
  1 10  1  0     0  0
  1 12  1  0     0  0
  4 13  2  0     0  0
  5 14  1  0     0  0
  5 23  1  0     0  0
  6  7  1  0     0  0
  6 16  1  0     0  0
  6 17  1  0     0  0
  7 15  1  0     0  0
  8 13  1  0     0  0
  8 15  2  0     0  0
  9 16  2  0     0  0
  9 18  1  0     0  0
 10 24  1  0     0  0
 10 25  1  0     0  0
 11 26  1  0     0  0
 11 27  1  0     0  0
 11 28  1  0     0  0
 12 20  1  0     0  0
 12 21  2  0     0  0
 13 17  1  0     0  0
 14 19  1  0     0  0
 14 22  2  0     0  0
 15 19  1  0     0  0
 16 29  1  0     0  0
 17 18  2  0     0  0
 18 30  1  0     0  0
 19 20  2  0     0  0
 21 22  1  0     0  0
 23 32  1  0     0  0
 24 26  1  0     0  0
 25 27  1  0     0  0
 28 33  1  0     0  0
 29 31  1  0     0  0
 31 34  1  0     0  0
M  END
> <standard_type>
pIC50

> <# Confs.>
25

> <canonical_smiles>
CCN1CCN(S(C2=CC=C(OCC)C(C(NN3C4=C(C)N=C3CCC)=NC4=O)=C2)(=O)=O)CC1

> <standard_relation>
=

> <Publication_ID>
nan

> <predicted_activity_value>
nan

> <actual_activity_value>
-1.1072099696478683

> <Compound>
Vardenafil

> <standard_units>
uM

> hash
535501735745654877

$$$$
53
XXILIB    08252103503D 0   0.00000     0.00000

 34 37  0     1  0            999 V2000
    1.7654   -0.0000    0.0000 S   0  0  2  0  0  6           0  0  0
    2.1890    0.5759   -1.2625 O   0  0  0  0  0  2           0  0  0
    2.2082    0.5812    1.2538 O   0  0  0  0  0  2           0  0  0
   -2.2136    1.1680    5.7238 O   0  0  0  0  0  2           0  0  0
   -4.1646   -0.0760    0.0390 O   0  0  0  0  0  2           0  0  0
   -4.5986   -0.7128    3.8264 N   0  0  0  0  0  3           0  0  0
   -4.0072   -0.7280    2.6015 N   0  0  0  0  0  3           0  0  0
   -2.1964    0.5534    3.5116 N   0  0  0  0  0  3           0  0  0
   -5.9891   -1.0185    5.5165 N   0  0  0  0  0  3           0  0  0
    2.1095   -1.6836    0.0000 N   0  0  1  0  0  3           0  0  0
    2.1321   -4.5680   -0.0776 N   0  0  1  0  0  3           0  0  0
    0.0000    0.0000    0.0000 C   0  0  0  0  0  4           0  0  0
   -2.7535    0.5972    4.7825 C   0  0  0  0  0  4           0  0  0
   -2.7999   -0.0820   -0.0194 C   0  0  0  0  0  4           0  0  0
   -2.7930   -0.0643    2.5217 C   0  0  0  0  0  4           0  0  0
   -5.7863   -1.2651    4.2360 C   0  0  0  0  0  4           0  0  0
   -4.0201   -0.0858    4.8947 C   0  0  0  0  0  4           0  0  0
   -4.9003   -0.2859    5.9392 C   0  0  0  0  0  4           0  0  0
   -2.0974   -0.0444    1.2015 C   0  0  0  0  0  4           0  0  0
   -0.6945    0.0000    1.2080 C   0  0  0  0  0  4           0  0  0
   -0.6790   -0.0469   -1.2138 C   0  0  0  0  0  4           0  0  0
   -2.0751   -0.0814   -1.2210 C   0  0  0  0  0  4           0  0  0
   -4.8241    0.5347   -1.0703 C   0  0  0  0  0  4           0  0  0
    1.5966   -2.4863    1.1489 C   0  0  0  0  0  4           0  0  0
    1.9253   -2.4171   -1.2869 C   0  0  0  0  0  4           0  0  0
    2.3184   -3.8330    1.1839 C   0  0  0  0  0  4           0  0  0
    2.6343   -3.7695   -1.2081 C   0  0  0  0  0  4           0  0  0
    2.7913   -5.8728   -0.0014 C   0  0  0  0  0  4           0  0  0
   -6.6956   -2.0240    3.3393 C   0  0  0  0  0  4           0  0  0
   -4.8079    0.1712    7.3407 C   0  0  0  0  0  4           0  0  0
   -7.7114   -1.1062    2.6687 C   0  0  0  0  0  4           0  0  0
   -6.3211    0.4497   -0.8348 C   0  0  0  0  0  4           0  0  0
    2.2298   -6.7308    1.1276 C   0  0  0  0  0  4           0  0  0
   -8.6605   -1.8514    1.7415 C   0  0  0  0  0  4           0  0  0
  1  2  2  0     0  0
  1  3  2  0     0  0
  1 10  1  0     0  0
  1 12  1  0     0  0
  4 13  2  0     0  0
  5 14  1  0     0  0
  5 23  1  0     0  0
  6  7  1  0     0  0
  6 16  1  0     0  0
  6 17  1  0     0  0
  7 15  1  0     0  0
  8 13  1  0     0  0
  8 15  2  0     0  0
  9 16  2  0     0  0
  9 18  1  0     0  0
 10 24  1  0     0  0
 10 25  1  0     0  0
 11 26  1  0     0  0
 11 27  1  0     0  0
 11 28  1  0     0  0
 12 20  1  0     0  0
 12 21  2  0     0  0
 13 17  1  0     0  0
 14 19  1  0     0  0
 14 22  2  0     0  0
 15 19  1  0     0  0
 16 29  1  0     0  0
 17 18  2  0     0  0
 18 30  1  0     0  0
 19 20  2  0     0  0
 21 22  1  0     0  0
 23 32  1  0     0  0
 24 26  1  0     0  0
 25 27  1  0     0  0
 28 33  1  0     0  0
 29 31  1  0     0  0
 31 34  1  0     0  0
M  END
> <standard_type>
pIC50

> <# Confs.>
25

> <canonical_smiles>
CCN1CCN(S(C2=CC=C(OCC)C(C(NN3C4=C(C)N=C3CCC)=NC4=O)=C2)(=O)=O)CC1

> <standard_relation>
=

> <Publication_ID>
nan

> <predicted_activity_value>
nan

> <actual_activity_value>
-1.1072099696478683

> <Compound>
Vardenafil

> <standard_units>
uM

> hash
535501735745654877

$$$$
53
XXILIB    08252103503D 0   0.00000     0.00000

 34 37  0     1  0            999 V2000
    1.7654   -0.0000    0.0000 S   0  0  2  0  0  6           0  0  0
    2.1890    0.5759   -1.2625 O   0  0  0  0  0  2           0  0  0
    2.2082    0.5812    1.2538 O   0  0  0  0  0  2           0  0  0
   -2.1157   -1.2016    5.7397 O   0  0  0  0  0  2           0  0  0
   -4.1646   -0.0760    0.0390 O   0  0  0  0  0  2           0  0  0
   -4.6448    0.4546    3.8197 N   0  0  0  0  0  3           0  0  0
   -4.0581    0.4974    2.5931 N   0  0  0  0  0  3           0  0  0
   -2.1475   -0.6161    3.5198 N   0  0  0  0  0  3           0  0  0
   -6.0552    0.6705    5.5071 N   0  0  0  0  0  3           0  0  0
    2.1095   -1.6836    0.0000 N   0  0  1  0  0  3           0  0  0
    2.1321   -4.5680   -0.0776 N   0  0  1  0  0  3           0  0  0
    0.0000    0.0000   -0.0000 C   0  0  0  0  0  4           0  0  0
   -2.7002   -0.6896    4.7913 C   0  0  0  0  0  4           0  0  0
   -2.7999   -0.0820   -0.0194 C   0  0  0  0  0  4           0  0  0
   -2.7930   -0.0643    2.5217 C   0  0  0  0  0  4           0  0  0
   -5.8723    0.9169    4.2236 C   0  0  0  0  0  4           0  0  0
   -4.0184   -0.1107    4.8953 C   0  0  0  0  0  4           0  0  0
   -4.9113    0.0330    5.9382 C   0  0  0  0  0  4           0  0  0
   -2.0974   -0.0444    1.2015 C   0  0  0  0  0  4           0  0  0
   -0.6945    0.0000    1.2080 C   0  0  0  0  0  4           0  0  0
   -0.6790   -0.0469   -1.2138 C   0  0  0  0  0  4           0  0  0
   -2.0751   -0.0814   -1.2210 C   0  0  0  0  0  4           0  0  0
   -4.8335   -0.1150   -1.2218 C   0  0  0  0  0  4           0  0  0
    1.5966   -2.4863    1.1489 C   0  0  0  0  0  4           0  0  0
    1.9253   -2.4171   -1.2869 C   0  0  0  0  0  4           0  0  0
    2.3184   -3.8330    1.1839 C   0  0  0  0  0  4           0  0  0
    2.6343   -3.7695   -1.2081 C   0  0  0  0  0  4           0  0  0
    2.7913   -5.8728   -0.0014 C   0  0  0  0  0  4           0  0  0
   -6.8348    1.5984    3.3204 C   0  0  0  0  0  4           0  0  0
   -4.7763   -0.3829    7.3491 C   0  0  0  0  0  4           0  0  0
   -8.1083    1.9944    4.0591 C   0  0  0  0  0  4           0  0  0
   -6.3290   -0.1021   -0.9634 C   0  0  0  0  0  4           0  0  0
    2.6248   -6.6724   -1.2894 C   0  0  0  0  0  4           0  0  0
   -9.1183    2.6961    3.1629 C   0  0  0  0  0  4           0  0  0
  1  2  2  0     0  0
  1  3  2  0     0  0
  1 10  1  0     0  0
  1 12  1  0     0  0
  4 13  2  0     0  0
  5 14  1  0     0  0
  5 23  1  0     0  0
  6  7  1  0     0  0
  6 16  1  0     0  0
  6 17  1  0     0  0
  7 15  1  0     0  0
  8 13  1  0     0  0
  8 15  2  0     0  0
  9 16  2  0     0  0
  9 18  1  0     0  0
 10 24  1  0     0  0
 10 25  1  0     0  0
 11 26  1  0     0  0
 11 27  1  0     0  0
 11 28  1  0     0  0
 12 20  1  0     0  0
 12 21  2  0     0  0
 13 17  1  0     0  0
 14 19  1  0     0  0
 14 22  2  0     0  0
 15 19  1  0     0  0
 16 29  1  0     0  0
 17 18  2  0     0  0
 18 30  1  0     0  0
 19 20  2  0     0  0
 21 22  1  0     0  0
 23 32  1  0     0  0
 24 26  1  0     0  0
 25 27  1  0     0  0
 28 33  1  0     0  0
 29 31  1  0     0  0
 31 34  1  0     0  0
M  END
> <standard_type>
pIC50

> <# Confs.>
25

> <canonical_smiles>
CCN1CCN(S(C2=CC=C(OCC)C(C(NN3C4=C(C)N=C3CCC)=NC4=O)=C2)(=O)=O)CC1

> <standard_relation>
=

> <Publication_ID>
nan

> <predicted_activity_value>
nan

> <actual_activity_value>
-1.1072099696478683

> <Compound>
Vardenafil

> <standard_units>
uM

> hash
535501735745654877

$$$$
53
XXILIB    08252103503D 0   0.00000     0.00000

 34 37  0     1  0            999 V2000
    1.7654   -0.0000    0.0000 S   0  0  2  0  0  6           0  0  0
    2.1890    0.5759   -1.2625 O   0  0  0  0  0  2           0  0  0
    2.2082    0.5812    1.2538 O   0  0  0  0  0  2           0  0  0
   -2.1157   -1.2016    5.7397 O   0  0  0  0  0  2           0  0  0
   -4.1646   -0.0760    0.0390 O   0  0  0  0  0  2           0  0  0
   -4.6448    0.4546    3.8197 N   0  0  0  0  0  3           0  0  0
   -4.0581    0.4974    2.5931 N   0  0  0  0  0  3           0  0  0
   -2.1475   -0.6161    3.5198 N   0  0  0  0  0  3           0  0  0
   -6.0552    0.6705    5.5071 N   0  0  0  0  0  3           0  0  0
    2.1095   -1.6836    0.0000 N   0  0  1  0  0  3           0  0  0
    2.1321   -4.5680   -0.0776 N   0  0  1  0  0  3           0  0  0
    0.0000    0.0000   -0.0000 C   0  0  0  0  0  4           0  0  0
   -2.7002   -0.6896    4.7913 C   0  0  0  0  0  4           0  0  0
   -2.7999   -0.0820   -0.0194 C   0  0  0  0  0  4           0  0  0
   -2.7930   -0.0643    2.5217 C   0  0  0  0  0  4           0  0  0
   -5.8723    0.9169    4.2236 C   0  0  0  0  0  4           0  0  0
   -4.0184   -0.1107    4.8953 C   0  0  0  0  0  4           0  0  0
   -4.9113    0.0330    5.9382 C   0  0  0  0  0  4           0  0  0
   -2.0974   -0.0444    1.2015 C   0  0  0  0  0  4           0  0  0
   -0.6945    0.0000    1.2080 C   0  0  0  0  0  4           0  0  0
   -0.6790   -0.0469   -1.2138 C   0  0  0  0  0  4           0  0  0
   -2.0751   -0.0814   -1.2210 C   0  0  0  0  0  4           0  0  0
   -4.8092   -1.2098   -0.5420 C   0  0  0  0  0  4           0  0  0
    1.5966   -2.4863    1.1489 C   0  0  0  0  0  4           0  0  0
    1.9253   -2.4171   -1.2869 C   0  0  0  0  0  4           0  0  0
    2.3184   -3.8330    1.1839 C   0  0  0  0  0  4           0  0  0
    2.6343   -3.7695   -1.2081 C   0  0  0  0  0  4           0  0  0
    2.7913   -5.8728   -0.0014 C   0  0  0  0  0  4           0  0  0
   -6.8348    1.5984    3.3204 C   0  0  0  0  0  4           0  0  0
   -4.7763   -0.3829    7.3491 C   0  0  0  0  0  4           0  0  0
   -6.6166    3.1072    3.3090 C   0  0  0  0  0  4           0  0  0
   -6.1104   -1.4461    0.2027 C   0  0  0  0  0  4           0  0  0
    2.6248   -6.6724   -1.2894 C   0  0  0  0  0  4           0  0  0
   -7.5870    3.8384    2.3927 C   0  0  0  0  0  4           0  0  0
  1  2  2  0     0  0
  1  3  2  0     0  0
  1 10  1  0     0  0
  1 12  1  0     0  0
  4 13  2  0     0  0
  5 14  1  0     0  0
  5 23  1  0     0  0
  6  7  1  0     0  0
  6 16  1  0     0  0
  6 17  1  0     0  0
  7 15  1  0     0  0
  8 13  1  0     0  0
  8 15  2  0     0  0
  9 16  2  0     0  0
  9 18  1  0     0  0
 10 24  1  0     0  0
 10 25  1  0     0  0
 11 26  1  0     0  0
 11 27  1  0     0  0
 11 28  1  0     0  0
 12 20  1  0     0  0
 12 21  2  0     0  0
 13 17  1  0     0  0
 14 19  1  0     0  0
 14 22  2  0     0  0
 15 19  1  0     0  0
 16 29  1  0     0  0
 17 18  2  0     0  0
 18 30  1  0     0  0
 19 20  2  0     0  0
 21 22  1  0     0  0
 23 32  1  0     0  0
 24 26  1  0     0  0
 25 27  1  0     0  0
 28 33  1  0     0  0
 29 31  1  0     0  0
 31 34  1  0     0  0
M  END
> <standard_type>
pIC50

> <# Confs.>
25

> <canonical_smiles>
CCN1CCN(S(C2=CC=C(OCC)C(C(NN3C4=C(C)N=C3CCC)=NC4=O)=C2)(=O)=O)CC1

> <standard_relation>
=

> <Publication_ID>
nan

> <predicted_activity_value>
nan

> <actual_activity_value>
-1.1072099696478683

> <Compound>
Vardenafil

> <standard_units>
uM

> hash
535501735745654877

$$$$
53
XXILIB    08252103503D 0   0.00000     0.00000

 34 37  0     1  0            999 V2000
    1.7654    0.0000    0.0000 S   0  0  2  0  0  6           0  0  0
    2.1890   -0.5759    1.2625 O   0  0  0  0  0  2           0  0  0
    2.2082   -0.5812   -1.2538 O   0  0  0  0  0  2           0  0  0
   -2.2136    1.1680    5.7238 O   0  0  0  0  0  2           0  0  0
   -4.1646   -0.0760    0.0390 O   0  0  0  0  0  2           0  0  0
   -4.5986   -0.7128    3.8264 N   0  0  0  0  0  3           0  0  0
   -4.0072   -0.7280    2.6015 N   0  0  0  0  0  3           0  0  0
   -2.1964    0.5534    3.5116 N   0  0  0  0  0  3           0  0  0
   -5.9891   -1.0185    5.5165 N   0  0  0  0  0  3           0  0  0
    2.1095    1.6836    0.0000 N   0  0  1  0  0  3           0  0  0
    2.1321    4.5680    0.0776 N   0  0  1  0  0  3           0  0  0
    0.0000    0.0000    0.0000 C   0  0  0  0  0  4           0  0  0
   -2.7535    0.5972    4.7825 C   0  0  0  0  0  4           0  0  0
   -2.7999   -0.0820   -0.0194 C   0  0  0  0  0  4           0  0  0
   -2.7930   -0.0643    2.5217 C   0  0  0  0  0  4           0  0  0
   -5.7863   -1.2651    4.2360 C   0  0  0  0  0  4           0  0  0
   -4.0201   -0.0858    4.8947 C   0  0  0  0  0  4           0  0  0
   -4.9003   -0.2859    5.9392 C   0  0  0  0  0  4           0  0  0
   -2.0974   -0.0444    1.2015 C   0  0  0  0  0  4           0  0  0
   -0.6945    0.0000    1.2080 C   0  0  0  0  0  4           0  0  0
   -0.6790   -0.0469   -1.2138 C   0  0  0  0  0  4           0  0  0
   -2.0751   -0.0814   -1.2210 C   0  0  0  0  0  4           0  0  0
   -4.8335   -0.1150   -1.2218 C   0  0  0  0  0  4           0  0  0
    1.5966    2.4863   -1.1489 C   0  0  0  0  0  4           0  0  0
    1.9253    2.4171    1.2869 C   0  0  0  0  0  4           0  0  0
    2.3184    3.8330   -1.1839 C   0  0  0  0  0  4           0  0  0
    2.6343    3.7695    1.2081 C   0  0  0  0  0  4           0  0  0
    2.7913    5.8728    0.0014 C   0  0  0  0  0  4           0  0  0
   -6.6956   -2.0240    3.3393 C   0  0  0  0  0  4           0  0  0
   -4.8079    0.1712    7.3407 C   0  0  0  0  0  4           0  0  0
   -7.9336   -2.5117    4.0834 C   0  0  0  0  0  4           0  0  0
   -6.3290   -0.1021   -0.9634 C   0  0  0  0  0  4           0  0  0
    2.6248    6.6724    1.2894 C   0  0  0  0  0  4           0  0  0
   -8.8886   -3.2942    3.1938 C   0  0  0  0  0  4           0  0  0
  1  2  2  0     0  0
  1  3  2  0     0  0
  1 10  1  0     0  0
  1 12  1  0     0  0
  4 13  2  0     0  0
  5 14  1  0     0  0
  5 23  1  0     0  0
  6  7  1  0     0  0
  6 16  1  0     0  0
  6 17  1  0     0  0
  7 15  1  0     0  0
  8 13  1  0     0  0
  8 15  2  0     0  0
  9 16  2  0     0  0
  9 18  1  0     0  0
 10 24  1  0     0  0
 10 25  1  0     0  0
 11 26  1  0     0  0
 11 27  1  0     0  0
 11 28  1  0     0  0
 12 20  1  0     0  0
 12 21  2  0     0  0
 13 17  1  0     0  0
 14 19  1  0     0  0
 14 22  2  0     0  0
 15 19  1  0     0  0
 16 29  1  0     0  0
 17 18  2  0     0  0
 18 30  1  0     0  0
 19 20  2  0     0  0
 21 22  1  0     0  0
 23 32  1  0     0  0
 24 26  1  0     0  0
 25 27  1  0     0  0
 28 33  1  0     0  0
 29 31  1  0     0  0
 31 34  1  0     0  0
M  END
> <standard_type>
pIC50

> <# Confs.>
25

> <canonical_smiles>
CCN1CCN(S(C2=CC=C(OCC)C(C(NN3C4=C(C)N=C3CCC)=NC4=O)=C2)(=O)=O)CC1

> <standard_relation>
=

> <Publication_ID>
nan

> <predicted_activity_value>
nan

> <actual_activity_value>
-1.1072099696478683

> <Compound>
Vardenafil

> <standard_units>
uM

> hash
535501735745654877

$$$$
53
XXILIB    08252103503D 0   0.00000     0.00000

 34 37  0     1  0            999 V2000
    1.7654   -0.0000    0.0000 S   0  0  2  0  0  6           0  0  0
    2.1890    0.5759   -1.2625 O   0  0  0  0  0  2           0  0  0
    2.2082    0.5812    1.2538 O   0  0  0  0  0  2           0  0  0
   -2.8471   -2.1034    5.3407 O   0  0  0  0  0  2           0  0  0
   -4.1646   -0.0760    0.0390 O   0  0  0  0  0  2           0  0  0
   -4.2837    0.8980    4.0166 N   0  0  0  0  0  3           0  0  0
   -3.6800    0.9639    2.7994 N   0  0  0  0  0  3           0  0  0
   -2.5082   -1.0614    3.3230 N   0  0  0  0  0  3           0  0  0
   -5.5326    1.3117    5.7921 N   0  0  0  0  0  3           0  0  0
    2.1095   -1.6836    0.0000 N   0  0  1  0  0  3           0  0  0
    2.1321   -4.5680   -0.0776 N   0  0  1  0  0  3           0  0  0
    0.0000    0.0000   -0.0000 C   0  0  0  0  0  4           0  0  0
   -3.0973   -1.1794    4.5746 C   0  0  0  0  0  4           0  0  0
   -2.7999   -0.0820   -0.0194 C   0  0  0  0  0  4           0  0  0
   -2.7930   -0.0643    2.5217 C   0  0  0  0  0  4           0  0  0
   -5.1973    1.7455    4.5917 C   0  0  0  0  0  4           0  0  0
   -4.0258   -0.1205    4.8912 C   0  0  0  0  0  4           0  0  0
   -4.8121    0.1535    5.9923 C   0  0  0  0  0  4           0  0  0
   -2.0974   -0.0444    1.2015 C   0  0  0  0  0  4           0  0  0
   -0.6945   -0.0000    1.2080 C   0  0  0  0  0  4           0  0  0
   -0.6790   -0.0469   -1.2138 C   0  0  0  0  0  4           0  0  0
   -2.0751   -0.0814   -1.2210 C   0  0  0  0  0  4           0  0  0
   -4.8280   -0.7535   -1.0284 C   0  0  0  0  0  4           0  0  0
    1.5966   -2.4863    1.1489 C   0  0  0  0  0  4           0  0  0
    1.9253   -2.4171   -1.2869 C   0  0  0  0  0  4           0  0  0
    2.3184   -3.8330    1.1839 C   0  0  0  0  0  4           0  0  0
    2.6343   -3.7695   -1.2081 C   0  0  0  0  0  4           0  0  0
    2.7913   -5.8728   -0.0014 C   0  0  0  0  0  4           0  0  0
   -5.7130    2.9726    3.9322 C   0  0  0  0  0  4           0  0  0
   -4.9441   -0.5974    7.2574 C   0  0  0  0  0  4           0  0  0
   -6.9648    2.6810    3.1124 C   0  0  0  0  0  4           0  0  0
   -6.1397   -1.3016   -0.4968 C   0  0  0  0  0  4           0  0  0
    2.2298   -6.7308    1.1276 C   0  0  0  0  0  4           0  0  0
   -7.5211    3.9177    2.4218 C   0  0  0  0  0  4           0  0  0
  1  2  2  0     0  0
  1  3  2  0     0  0
  1 10  1  0     0  0
  1 12  1  0     0  0
  4 13  2  0     0  0
  5 14  1  0     0  0
  5 23  1  0     0  0
  6  7  1  0     0  0
  6 16  1  0     0  0
  6 17  1  0     0  0
  7 15  1  0     0  0
  8 13  1  0     0  0
  8 15  2  0     0  0
  9 16  2  0     0  0
  9 18  1  0     0  0
 10 24  1  0     0  0
 10 25  1  0     0  0
 11 26  1  0     0  0
 11 27  1  0     0  0
 11 28  1  0     0  0
 12 20  1  0     0  0
 12 21  2  0     0  0
 13 17  1  0     0  0
 14 19  1  0     0  0
 14 22  2  0     0  0
 15 19  1  0     0  0
 16 29  1  0     0  0
 17 18  2  0     0  0
 18 30  1  0     0  0
 19 20  2  0     0  0
 21 22  1  0     0  0
 23 32  1  0     0  0
 24 26  1  0     0  0
 25 27  1  0     0  0
 28 33  1  0     0  0
 29 31  1  0     0  0
 31 34  1  0     0  0
M  END
> <standard_type>
pIC50

> <# Confs.>
25

> <canonical_smiles>
CCN1CCN(S(C2=CC=C(OCC)C(C(NN3C4=C(C)N=C3CCC)=NC4=O)=C2)(=O)=O)CC1

> <standard_relation>
=

> <Publication_ID>
nan

> <predicted_activity_value>
nan

> <actual_activity_value>
-1.1072099696478683

> <Compound>
Vardenafil

> <standard_units>
uM

> hash
535501735745654877

$$$$
53
XXILIB    08252103503D 0   0.00000     0.00000

 34 37  0     1  0            999 V2000
    1.7654    0.0000    0.0000 S   0  0  2  0  0  6           0  0  0
    2.1890   -0.5759    1.2625 O   0  0  0  0  0  2           0  0  0
    2.2082   -0.5812   -1.2538 O   0  0  0  0  0  2           0  0  0
   -2.1157   -1.2016    5.7397 O   0  0  0  0  0  2           0  0  0
   -4.1646   -0.0760    0.0390 O   0  0  0  0  0  2           0  0  0
   -4.6448    0.4546    3.8197 N   0  0  0  0  0  3           0  0  0
   -4.0581    0.4974    2.5931 N   0  0  0  0  0  3           0  0  0
   -2.1475   -0.6161    3.5198 N   0  0  0  0  0  3           0  0  0
   -6.0552    0.6705    5.5071 N   0  0  0  0  0  3           0  0  0
    2.1095    1.6836    0.0000 N   0  0  1  0  0  3           0  0  0
    2.1321    4.5680    0.0776 N   0  0  1  0  0  3           0  0  0
    0.0000    0.0000   -0.0000 C   0  0  0  0  0  4           0  0  0
   -2.7002   -0.6896    4.7913 C   0  0  0  0  0  4           0  0  0
   -2.7999   -0.0820   -0.0194 C   0  0  0  0  0  4           0  0  0
   -2.7930   -0.0643    2.5217 C   0  0  0  0  0  4           0  0  0
   -5.8723    0.9169    4.2236 C   0  0  0  0  0  4           0  0  0
   -4.0184   -0.1107    4.8953 C   0  0  0  0  0  4           0  0  0
   -4.9113    0.0330    5.9382 C   0  0  0  0  0  4           0  0  0
   -2.0974   -0.0444    1.2015 C   0  0  0  0  0  4           0  0  0
   -0.6945    0.0000    1.2080 C   0  0  0  0  0  4           0  0  0
   -0.6790   -0.0469   -1.2138 C   0  0  0  0  0  4           0  0  0
   -2.0751   -0.0814   -1.2210 C   0  0  0  0  0  4           0  0  0
   -4.8335   -0.1150   -1.2218 C   0  0  0  0  0  4           0  0  0
    1.5966    2.4863   -1.1489 C   0  0  0  0  0  4           0  0  0
    1.9253    2.4171    1.2869 C   0  0  0  0  0  4           0  0  0
    2.3184    3.8330   -1.1839 C   0  0  0  0  0  4           0  0  0
    2.6343    3.7695    1.2081 C   0  0  0  0  0  4           0  0  0
    2.7913    5.8728    0.0014 C   0  0  0  0  0  4           0  0  0
   -6.8348    1.5984    3.3204 C   0  0  0  0  0  4           0  0  0
   -4.7763   -0.3829    7.3491 C   0  0  0  0  0  4           0  0  0
   -7.7759    0.6014    2.6537 C   0  0  0  0  0  4           0  0  0
   -6.3290   -0.1021   -0.9634 C   0  0  0  0  0  4           0  0  0
    2.6248    6.6724    1.2894 C   0  0  0  0  0  4           0  0  0
   -8.6036   -0.1915    3.6547 C   0  0  0  0  0  4           0  0  0
  1  2  2  0     0  0
  1  3  2  0     0  0
  1 10  1  0     0  0
  1 12  1  0     0  0
  4 13  2  0     0  0
  5 14  1  0     0  0
  5 23  1  0     0  0
  6  7  1  0     0  0
  6 16  1  0     0  0
  6 17  1  0     0  0
  7 15  1  0     0  0
  8 13  1  0     0  0
  8 15  2  0     0  0
  9 16  2  0     0  0
  9 18  1  0     0  0
 10 24  1  0     0  0
 10 25  1  0     0  0
 11 26  1  0     0  0
 11 27  1  0     0  0
 11 28  1  0     0  0
 12 20  1  0     0  0
 12 21  2  0     0  0
 13 17  1  0     0  0
 14 19  1  0     0  0
 14 22  2  0     0  0
 15 19  1  0     0  0
 16 29  1  0     0  0
 17 18  2  0     0  0
 18 30  1  0     0  0
 19 20  2  0     0  0
 21 22  1  0     0  0
 23 32  1  0     0  0
 24 26  1  0     0  0
 25 27  1  0     0  0
 28 33  1  0     0  0
 29 31  1  0     0  0
 31 34  1  0     0  0
M  END
> <standard_type>
pIC50

> <# Confs.>
25

> <canonical_smiles>
CCN1CCN(S(C2=CC=C(OCC)C(C(NN3C4=C(C)N=C3CCC)=NC4=O)=C2)(=O)=O)CC1

> <standard_relation>
=

> <Publication_ID>
nan

> <predicted_activity_value>
nan

> <actual_activity_value>
-1.1072099696478683

> <Compound>
Vardenafil

> <standard_units>
uM

> hash
535501735745654877

$$$$
53
XXILIB    08252103503D 0   0.00000     0.00000

 34 37  0     1  0            999 V2000
    1.7654    0.0000    0.0000 S   0  0  2  0  0  6           0  0  0
    2.1890   -0.5759    1.2625 O   0  0  0  0  0  2           0  0  0
    2.2082   -0.5812   -1.2538 O   0  0  0  0  0  2           0  0  0
   -2.1157   -1.2016    5.7397 O   0  0  0  0  0  2           0  0  0
   -4.1646   -0.0760    0.0390 O   0  0  0  0  0  2           0  0  0
   -4.6448    0.4546    3.8197 N   0  0  0  0  0  3           0  0  0
   -4.0581    0.4974    2.5931 N   0  0  0  0  0  3           0  0  0
   -2.1475   -0.6161    3.5198 N   0  0  0  0  0  3           0  0  0
   -6.0552    0.6705    5.5071 N   0  0  0  0  0  3           0  0  0
    2.1095    1.6836    0.0000 N   0  0  1  0  0  3           0  0  0
    2.1321    4.5680    0.0776 N   0  0  1  0  0  3           0  0  0
    0.0000    0.0000   -0.0000 C   0  0  0  0  0  4           0  0  0
   -2.7002   -0.6896    4.7913 C   0  0  0  0  0  4           0  0  0
   -2.7999   -0.0820   -0.0194 C   0  0  0  0  0  4           0  0  0
   -2.7930   -0.0643    2.5217 C   0  0  0  0  0  4           0  0  0
   -5.8723    0.9169    4.2236 C   0  0  0  0  0  4           0  0  0
   -4.0184   -0.1107    4.8953 C   0  0  0  0  0  4           0  0  0
   -4.9113    0.0330    5.9382 C   0  0  0  0  0  4           0  0  0
   -2.0974   -0.0444    1.2015 C   0  0  0  0  0  4           0  0  0
   -0.6945    0.0000    1.2080 C   0  0  0  0  0  4           0  0  0
   -0.6790   -0.0469   -1.2138 C   0  0  0  0  0  4           0  0  0
   -2.0751   -0.0814   -1.2210 C   0  0  0  0  0  4           0  0  0
   -4.8280   -0.7535   -1.0284 C   0  0  0  0  0  4           0  0  0
    1.5966    2.4863   -1.1489 C   0  0  0  0  0  4           0  0  0
    1.9253    2.4171    1.2869 C   0  0  0  0  0  4           0  0  0
    2.3184    3.8330   -1.1839 C   0  0  0  0  0  4           0  0  0
    2.6343    3.7695    1.2081 C   0  0  0  0  0  4           0  0  0
    2.7913    5.8728    0.0014 C   0  0  0  0  0  4           0  0  0
   -6.8348    1.5984    3.3204 C   0  0  0  0  0  4           0  0  0
   -4.7763   -0.3829    7.3491 C   0  0  0  0  0  4           0  0  0
   -6.6166    3.1072    3.3090 C   0  0  0  0  0  4           0  0  0
   -6.1397   -1.3016   -0.4968 C   0  0  0  0  0  4           0  0  0
    2.6248    6.6724    1.2894 C   0  0  0  0  0  4           0  0  0
   -6.7849    3.7398    4.6827 C   0  0  0  0  0  4           0  0  0
  1  2  2  0     0  0
  1  3  2  0     0  0
  1 10  1  0     0  0
  1 12  1  0     0  0
  4 13  2  0     0  0
  5 14  1  0     0  0
  5 23  1  0     0  0
  6  7  1  0     0  0
  6 16  1  0     0  0
  6 17  1  0     0  0
  7 15  1  0     0  0
  8 13  1  0     0  0
  8 15  2  0     0  0
  9 16  2  0     0  0
  9 18  1  0     0  0
 10 24  1  0     0  0
 10 25  1  0     0  0
 11 26  1  0     0  0
 11 27  1  0     0  0
 11 28  1  0     0  0
 12 20  1  0     0  0
 12 21  2  0     0  0
 13 17  1  0     0  0
 14 19  1  0     0  0
 14 22  2  0     0  0
 15 19  1  0     0  0
 16 29  1  0     0  0
 17 18  2  0     0  0
 18 30  1  0     0  0
 19 20  2  0     0  0
 21 22  1  0     0  0
 23 32  1  0     0  0
 24 26  1  0     0  0
 25 27  1  0     0  0
 28 33  1  0     0  0
 29 31  1  0     0  0
 31 34  1  0     0  0
M  END
> <standard_type>
pIC50

> <# Confs.>
25

> <canonical_smiles>
CCN1CCN(S(C2=CC=C(OCC)C(C(NN3C4=C(C)N=C3CCC)=NC4=O)=C2)(=O)=O)CC1

> <standard_relation>
=

> <Publication_ID>
nan

> <predicted_activity_value>
nan

> <actual_activity_value>
-1.1072099696478683

> <Compound>
Vardenafil

> <standard_units>
uM

> hash
535501735745654877

$$$$
53
XXILIB    08252103503D 0   0.00000     0.00000

 34 37  0     1  0            999 V2000
    1.7654   -0.0000    0.0000 S   0  0  2  0  0  6           0  0  0
    2.1890    0.5759   -1.2625 O   0  0  0  0  0  2           0  0  0
    2.2082    0.5812    1.2538 O   0  0  0  0  0  2           0  0  0
   -2.8471   -2.1034    5.3407 O   0  0  0  0  0  2           0  0  0
   -4.1646   -0.0760    0.0390 O   0  0  0  0  0  2           0  0  0
   -4.2837    0.8980    4.0166 N   0  0  0  0  0  3           0  0  0
   -3.6800    0.9639    2.7994 N   0  0  0  0  0  3           0  0  0
   -2.5082   -1.0614    3.3230 N   0  0  0  0  0  3           0  0  0
   -5.5326    1.3117    5.7921 N   0  0  0  0  0  3           0  0  0
    2.1095   -1.6836    0.0000 N   0  0  1  0  0  3           0  0  0
    2.1321   -4.5680   -0.0776 N   0  0  1  0  0  3           0  0  0
    0.0000    0.0000   -0.0000 C   0  0  0  0  0  4           0  0  0
   -3.0973   -1.1794    4.5746 C   0  0  0  0  0  4           0  0  0
   -2.7999   -0.0820   -0.0194 C   0  0  0  0  0  4           0  0  0
   -2.7930   -0.0643    2.5217 C   0  0  0  0  0  4           0  0  0
   -5.1973    1.7455    4.5917 C   0  0  0  0  0  4           0  0  0
   -4.0258   -0.1205    4.8912 C   0  0  0  0  0  4           0  0  0
   -4.8121    0.1535    5.9923 C   0  0  0  0  0  4           0  0  0
   -2.0974   -0.0444    1.2015 C   0  0  0  0  0  4           0  0  0
   -0.6945   -0.0000    1.2080 C   0  0  0  0  0  4           0  0  0
   -0.6790   -0.0469   -1.2138 C   0  0  0  0  0  4           0  0  0
   -2.0751   -0.0814   -1.2210 C   0  0  0  0  0  4           0  0  0
   -4.8280   -0.7535   -1.0284 C   0  0  0  0  0  4           0  0  0
    1.5966   -2.4863    1.1489 C   0  0  0  0  0  4           0  0  0
    1.9253   -2.4171   -1.2869 C   0  0  0  0  0  4           0  0  0
    2.3184   -3.8330    1.1839 C   0  0  0  0  0  4           0  0  0
    2.6343   -3.7695   -1.2081 C   0  0  0  0  0  4           0  0  0
    2.7913   -5.8728   -0.0014 C   0  0  0  0  0  4           0  0  0
   -5.7130    2.9726    3.9322 C   0  0  0  0  0  4           0  0  0
   -4.9441   -0.5974    7.2574 C   0  0  0  0  0  4           0  0  0
   -4.8485    4.1856    4.2568 C   0  0  0  0  0  4           0  0  0
   -6.1397   -1.3016   -0.4968 C   0  0  0  0  0  4           0  0  0
    2.2298   -6.7308    1.1276 C   0  0  0  0  0  4           0  0  0
   -5.3486    5.4623    3.5967 C   0  0  0  0  0  4           0  0  0
  1  2  2  0     0  0
  1  3  2  0     0  0
  1 10  1  0     0  0
  1 12  1  0     0  0
  4 13  2  0     0  0
  5 14  1  0     0  0
  5 23  1  0     0  0
  6  7  1  0     0  0
  6 16  1  0     0  0
  6 17  1  0     0  0
  7 15  1  0     0  0
  8 13  1  0     0  0
  8 15  2  0     0  0
  9 16  2  0     0  0
  9 18  1  0     0  0
 10 24  1  0     0  0
 10 25  1  0     0  0
 11 26  1  0     0  0
 11 27  1  0     0  0
 11 28  1  0     0  0
 12 20  1  0     0  0
 12 21  2  0     0  0
 13 17  1  0     0  0
 14 19  1  0     0  0
 14 22  2  0     0  0
 15 19  1  0     0  0
 16 29  1  0     0  0
 17 18  2  0     0  0
 18 30  1  0     0  0
 19 20  2  0     0  0
 21 22  1  0     0  0
 23 32  1  0     0  0
 24 26  1  0     0  0
 25 27  1  0     0  0
 28 33  1  0     0  0
 29 31  1  0     0  0
 31 34  1  0     0  0
M  END
> <standard_type>
pIC50

> <# Confs.>
25

> <canonical_smiles>
CCN1CCN(S(C2=CC=C(OCC)C(C(NN3C4=C(C)N=C3CCC)=NC4=O)=C2)(=O)=O)CC1

> <standard_relation>
=

> <Publication_ID>
nan

> <predicted_activity_value>
nan

> <actual_activity_value>
-1.1072099696478683

> <Compound>
Vardenafil

> <standard_units>
uM

> hash
535501735745654877

$$$$
25
XXILIB    08252103503D 0   0.00000     0.00000

 26 28  0     1  0            999 V2000
   -4.6149    0.5595    9.1093 Cl  0  0  0  0  0  1           0  0  0
    1.4922   -7.0547    3.2887 F   0  0  0  0  0  1           0  0  0
    1.4935   -2.6169   -1.1399 O   0  0  0  0  0  2           0  0  0
   -2.6985    2.3031    3.0291 O   0  0  0  0  0  2           0  0  0
   -0.5791   -0.0000    1.3469 N   0  0  2  0  0  3           0  0  0
   -3.9265    0.7016    7.5379 C   0  0  0  0  0  4           0  0  0
    1.5542   -5.9626    2.5136 C   0  0  0  0  0  4           0  0  0
    1.6825   -3.7165    0.9173 C   0  0  0  0  0  4           0  0  0
   -2.7976    0.9367    4.9716 C   0  0  0  0  0  4           0  0  0
   -2.5419    0.7269    7.3872 C   0  0  0  0  0  4           0  0  0
   -4.7559    0.7916    6.4235 C   0  0  0  0  0  4           0  0  0
    2.4534   -4.9470    2.8336 C   0  0  0  0  0  4           0  0  0
    0.7192   -5.8651    1.4018 C   0  0  0  0  0  4           0  0  0
    2.5210   -3.8116    2.0291 C   0  0  0  0  0  4           0  0  0
    0.7821   -4.7325    0.5931 C   0  0  0  0  0  4           0  0  0
   -1.9830    0.8437    6.1113 C   0  0  0  0  0  4           0  0  0
   -4.1931    0.9086    5.1507 C   0  0  0  0  0  4           0  0  0
    1.7560   -2.5136    0.0554 C   0  0  0  0  0  4           0  0  0
   -2.2182    1.0693    3.5821 C   0  0  1  0  0  4           0  0  0
   -2.0464    0.0000    1.2651 C   0  0  0  0  0  4           0  0  0
   -0.1077    1.1464    2.1373 C   0  0  0  0  0  4           0  0  0
    0.0000    0.0000   -0.0000 C   0  0  0  0  0  4           0  0  0
    2.1548   -1.2034    0.6948 C   0  0  0  0  0  4           0  0  0
   -2.6892   -0.0704    2.6558 C   0  0  0  0  0  4           0  0  0
   -0.6750    1.1089    3.5611 C   0  0  0  0  0  4           0  0  0
    1.5303   -0.0000   -0.0000 C   0  0  0  0  0  4           0  0  0
  1  6  1  0     0  0
  2  7  1  0     0  0
  3 18  2  0     0  0
  4 19  1  0     0  0
  5 20  1  0     0  0
  5 21  1  0     0  0
  5 22  1  0     0  0
  6 10  2  0     0  0
  6 11  1  0     0  0
  7 12  2  0     0  0
  7 13  1  0     0  0
  8 14  2  0     0  0
  8 15  1  0     0  0
  8 18  1  0     0  0
  9 16  2  0     0  0
  9 17  1  0     0  0
  9 19  1  0     0  0
 10 16  1  0     0  0
 11 17  2  0     0  0
 12 14  1  0     0  0
 13 15  2  0     0  0
 18 23  1  0     0  0
 19 24  1  0     0  0
 19 25  1  0     0  0
 20 24  1  0     0  0
 21 25  1  0     0  0
 22 26  1  0     0  0
 23 26  1  0     0  0
M  END
> <standard_type>
pIC50

> <# Confs.>
25

> <canonical_smiles>
O=C(CCCN1CCC(C2=CC=C(Cl)C=C2)(O)CC1)C3=CC=C(F)C=C3

> <standard_relation>
=

> <Publication_ID>
nan

> <predicted_activity_value>
nan

> <actual_activity_value>
0.5528419686577808

> <Compound>
Haloperidol 

> <standard_units>
uM

> hash
15886590527871891675

$$$$
25
XXILIB    08252103503D 0   0.00000     0.00000

 26 28  0     1  0            999 V2000
   -4.6149    0.5595    9.1093 Cl  0  0  0  0  0  1           0  0  0
    6.4349   -5.3510    3.1147 F   0  0  0  0  0  1           0  0  0
    4.3002   -0.2553    0.1474 O   0  0  0  0  0  2           0  0  0
   -2.6985    2.3031    3.0291 O   0  0  0  0  0  2           0  0  0
   -0.5791   -0.0000    1.3469 N   0  0  2  0  0  3           0  0  0
   -3.9265    0.7016    7.5379 C   0  0  0  0  0  4           0  0  0
    5.7694   -4.3470    2.5263 C   0  0  0  0  0  4           0  0  0
    4.4004   -2.2800    1.3167 C   0  0  0  0  0  4           0  0  0
   -2.7976    0.9367    4.9716 C   0  0  0  0  0  4           0  0  0
   -2.5419    0.7269    7.3872 C   0  0  0  0  0  4           0  0  0
   -4.7559    0.7916    6.4235 C   0  0  0  0  0  4           0  0  0
    4.3757   -4.3588    2.5245 C   0  0  0  0  0  4           0  0  0
    6.4844   -3.3102    1.9291 C   0  0  0  0  0  4           0  0  0
    3.6814   -3.3161    1.9149 C   0  0  0  0  0  4           0  0  0
    5.7961   -2.2644    1.3182 C   0  0  0  0  0  4           0  0  0
   -1.9830    0.8437    6.1113 C   0  0  0  0  0  4           0  0  0
   -4.1931    0.9086    5.1507 C   0  0  0  0  0  4           0  0  0
    3.6657   -1.1659    0.6731 C   0  0  0  0  0  4           0  0  0
   -2.2182    1.0693    3.5821 C   0  0  1  0  0  4           0  0  0
   -2.0464    0.0000    1.2651 C   0  0  0  0  0  4           0  0  0
   -0.1077    1.1464    2.1373 C   0  0  0  0  0  4           0  0  0
    0.0000    0.0000   -0.0000 C   0  0  0  0  0  4           0  0  0
    2.1548   -1.2034    0.6948 C   0  0  0  0  0  4           0  0  0
   -2.6892   -0.0704    2.6558 C   0  0  0  0  0  4           0  0  0
   -0.6750    1.1089    3.5611 C   0  0  0  0  0  4           0  0  0
    1.5303    0.0000   -0.0000 C   0  0  0  0  0  4           0  0  0
  1  6  1  0     0  0
  2  7  1  0     0  0
  3 18  2  0     0  0
  4 19  1  0     0  0
  5 20  1  0     0  0
  5 21  1  0     0  0
  5 22  1  0     0  0
  6 10  2  0     0  0
  6 11  1  0     0  0
  7 12  2  0     0  0
  7 13  1  0     0  0
  8 14  2  0     0  0
  8 15  1  0     0  0
  8 18  1  0     0  0
  9 16  2  0     0  0
  9 17  1  0     0  0
  9 19  1  0     0  0
 10 16  1  0     0  0
 11 17  2  0     0  0
 12 14  1  0     0  0
 13 15  2  0     0  0
 18 23  1  0     0  0
 19 24  1  0     0  0
 19 25  1  0     0  0
 20 24  1  0     0  0
 21 25  1  0     0  0
 22 26  1  0     0  0
 23 26  1  0     0  0
M  END
> <standard_type>
pIC50

> <# Confs.>
25

> <canonical_smiles>
O=C(CCCN1CCC(C2=CC=C(Cl)C=C2)(O)CC1)C3=CC=C(F)C=C3

> <standard_relation>
=

> <Publication_ID>
nan

> <predicted_activity_value>
nan

> <actual_activity_value>
0.5528419686577808

> <Compound>
Haloperidol 

> <standard_units>
uM

> hash
15886590527871891675

$$$$
25
XXILIB    08252103503D 0   0.00000     0.00000

 26 28  0     1  0            999 V2000
   -4.1765   -0.8350    9.2978 Cl  0  0  0  0  0  1           0  0  0
    1.4932    7.0526    3.2917 F   0  0  0  0  0  1           0  0  0
    1.4935    2.6169   -1.1399 O   0  0  0  0  0  2           0  0  0
   -2.7636   -2.2622    3.0011 O   0  0  0  0  0  2           0  0  0
   -0.5791   -0.0000    1.3469 N   0  0  2  0  0  3           0  0  0
   -3.6173   -0.8960    7.6709 C   0  0  0  0  0  4           0  0  0
    1.5544    5.9614    2.5154 C   0  0  0  0  0  4           0  0  0
    1.6820    3.7164    0.9174 C   0  0  0  0  0  4           0  0  0
   -2.7075   -0.9933    5.0103 C   0  0  0  0  0  4           0  0  0
   -3.9235    0.1414    6.7931 C   0  0  0  0  0  4           0  0  0
   -2.8617   -1.9820    7.2380 C   0  0  0  0  0  4           0  0  0
    0.7130    5.8612    1.4088 C   0  0  0  0  0  4           0  0  0
    2.4595    4.9489    2.8294 C   0  0  0  0  0  4           0  0  0
    0.7754    4.7290    0.5995 C   0  0  0  0  0  4           0  0  0
    2.5270    3.8143    2.0239 C   0  0  0  0  0  4           0  0  0
   -3.4705    0.0912    5.4717 C   0  0  0  0  0  4           0  0  0
   -2.4116   -2.0282    5.9167 C   0  0  0  0  0  4           0  0  0
    1.7560    2.5136    0.0554 C   0  0  0  0  0  4           0  0  0
   -2.2108   -1.0740    3.5853 C   0  0  1  0  0  4           0  0  0
   -0.1444   -1.1953    2.0829 C   0  0  0  0  0  4           0  0  0
   -2.0469    0.0723    1.3034 C   0  0  0  0  0  4           0  0  0
    0.0000    0.0000    0.0000 C   0  0  0  0  0  4           0  0  0
    2.1548    1.2034    0.6948 C   0  0  0  0  0  4           0  0  0
   -0.6745   -1.1957    3.5221 C   0  0  0  0  0  4           0  0  0
   -2.6412    0.1268    2.7156 C   0  0  0  0  0  4           0  0  0
    1.5303    0.0000   -0.0000 C   0  0  0  0  0  4           0  0  0
  1  6  1  0     0  0
  2  7  1  0     0  0
  3 18  2  0     0  0
  4 19  1  0     0  0
  5 20  1  0     0  0
  5 21  1  0     0  0
  5 22  1  0     0  0
  6 10  2  0     0  0
  6 11  1  0     0  0
  7 12  2  0     0  0
  7 13  1  0     0  0
  8 14  2  0     0  0
  8 15  1  0     0  0
  8 18  1  0     0  0
  9 16  2  0     0  0
  9 17  1  0     0  0
  9 19  1  0     0  0
 10 16  1  0     0  0
 11 17  2  0     0  0
 12 14  1  0     0  0
 13 15  2  0     0  0
 18 23  1  0     0  0
 19 24  1  0     0  0
 19 25  1  0     0  0
 20 24  1  0     0  0
 21 25  1  0     0  0
 22 26  1  0     0  0
 23 26  1  0     0  0
M  END
> <standard_type>
pIC50

> <# Confs.>
25

> <canonical_smiles>
O=C(CCCN1CCC(C2=CC=C(Cl)C=C2)(O)CC1)C3=CC=C(F)C=C3

> <standard_relation>
=

> <Publication_ID>
nan

> <predicted_activity_value>
nan

> <actual_activity_value>
0.5528419686577808

> <Compound>
Haloperidol 

> <standard_units>
uM

> hash
15886590527871891675

$$$$
25
XXILIB    08252103503D 0   0.00000     0.00000

 26 28  0     1  0            999 V2000
   -4.6149    0.5595    9.1093 Cl  0  0  0  0  0  1           0  0  0
    6.4218   -3.5744    4.8859 F   0  0  0  0  0  1           0  0  0
    4.3042   -0.6333   -0.2307 O   0  0  0  0  0  2           0  0  0
   -2.6985    2.3031    3.0291 O   0  0  0  0  0  2           0  0  0
   -0.5791   -0.0000    1.3469 N   0  0  2  0  0  3           0  0  0
   -3.9265    0.7016    7.5379 C   0  0  0  0  0  4           0  0  0
    5.7590   -2.9941    3.8754 C   0  0  0  0  0  4           0  0  0
    4.3954   -1.8015    1.7951 C   0  0  0  0  0  4           0  0  0
   -2.7976    0.9367    4.9716 C   0  0  0  0  0  4           0  0  0
   -2.5419    0.7269    7.3872 C   0  0  0  0  0  4           0  0  0
   -4.7559    0.7916    6.4235 C   0  0  0  0  0  4           0  0  0
    6.3261   -1.9000    3.2244 C   0  0  0  0  0  4           0  0  0
    4.5162   -3.4975    3.4947 C   0  0  0  0  0  4           0  0  0
    5.6402   -1.2959    2.1731 C   0  0  0  0  0  4           0  0  0
    3.8254   -2.8980    2.4439 C   0  0  0  0  0  4           0  0  0
   -1.9830    0.8437    6.1113 C   0  0  0  0  0  4           0  0  0
   -4.1931    0.9086    5.1507 C   0  0  0  0  0  4           0  0  0
    3.6657   -1.1659    0.6731 C   0  0  0  0  0  4           0  0  0
   -2.2182    1.0693    3.5821 C   0  0  1  0  0  4           0  0  0
   -2.0464    0.0000    1.2651 C   0  0  0  0  0  4           0  0  0
   -0.1077    1.1464    2.1373 C   0  0  0  0  0  4           0  0  0
    0.0000    0.0000   -0.0000 C   0  0  0  0  0  4           0  0  0
    2.1548   -1.2034    0.6948 C   0  0  0  0  0  4           0  0  0
   -2.6892   -0.0704    2.6558 C   0  0  0  0  0  4           0  0  0
   -0.6750    1.1089    3.5611 C   0  0  0  0  0  4           0  0  0
    1.5303   -0.0000   -0.0000 C   0  0  0  0  0  4           0  0  0
  1  6  1  0     0  0
  2  7  1  0     0  0
  3 18  2  0     0  0
  4 19  1  0     0  0
  5 20  1  0     0  0
  5 21  1  0     0  0
  5 22  1  0     0  0
  6 10  2  0     0  0
  6 11  1  0     0  0
  7 12  2  0     0  0
  7 13  1  0     0  0
  8 14  2  0     0  0
  8 15  1  0     0  0
  8 18  1  0     0  0
  9 16  2  0     0  0
  9 17  1  0     0  0
  9 19  1  0     0  0
 10 16  1  0     0  0
 11 17  2  0     0  0
 12 14  1  0     0  0
 13 15  2  0     0  0
 18 23  1  0     0  0
 19 24  1  0     0  0
 19 25  1  0     0  0
 20 24  1  0     0  0
 21 25  1  0     0  0
 22 26  1  0     0  0
 23 26  1  0     0  0
M  END
> <standard_type>
pIC50

> <# Confs.>
25

> <canonical_smiles>
O=C(CCCN1CCC(C2=CC=C(Cl)C=C2)(O)CC1)C3=CC=C(F)C=C3

> <standard_relation>
=

> <Publication_ID>
nan

> <predicted_activity_value>
nan

> <actual_activity_value>
0.5528419686577808

> <Compound>
Haloperidol 

> <standard_units>
uM

> hash
15886590527871891675

$$$$
25
XXILIB    08252103503D 0   0.00000     0.00000

 26 28  0     1  0            999 V2000
   -4.6149    0.5595    9.1093 Cl  0  0  0  0  0  1           0  0  0
    1.4628   -7.0514    3.2907 F   0  0  0  0  0  1           0  0  0
    1.4935   -2.6169   -1.1399 O   0  0  0  0  0  2           0  0  0
   -2.6985    2.3031    3.0291 O   0  0  0  0  0  2           0  0  0
   -0.5791   -0.0000    1.3469 N   0  0  2  0  0  3           0  0  0
   -3.9265    0.7016    7.5379 C   0  0  0  0  0  4           0  0  0
    1.5352   -5.9607    2.5147 C   0  0  0  0  0  4           0  0  0
    1.6825   -3.7165    0.9173 C   0  0  0  0  0  4           0  0  0
   -2.7976    0.9367    4.9716 C   0  0  0  0  0  4           0  0  0
   -2.5419    0.7269    7.3872 C   0  0  0  0  0  4           0  0  0
   -4.7559    0.7916    6.4235 C   0  0  0  0  0  4           0  0  0
    2.4197   -5.9450    1.4377 C   0  0  0  0  0  4           0  0  0
    0.7232   -4.8641    2.7994 C   0  0  0  0  0  4           0  0  0
    2.4961   -4.8134    0.6288 C   0  0  0  0  0  4           0  0  0
    0.7946   -3.7296    1.9941 C   0  0  0  0  0  4           0  0  0
   -1.9830    0.8437    6.1113 C   0  0  0  0  0  4           0  0  0
   -4.1931    0.9086    5.1507 C   0  0  0  0  0  4           0  0  0
    1.7560   -2.5136    0.0554 C   0  0  0  0  0  4           0  0  0
   -2.2182    1.0693    3.5821 C   0  0  1  0  0  4           0  0  0
   -2.0464    0.0000    1.2651 C   0  0  0  0  0  4           0  0  0
   -0.1077    1.1464    2.1373 C   0  0  0  0  0  4           0  0  0
    0.0000    0.0000   -0.0000 C   0  0  0  0  0  4           0  0  0
    2.1548   -1.2034    0.6948 C   0  0  0  0  0  4           0  0  0
   -2.6892   -0.0704    2.6558 C   0  0  0  0  0  4           0  0  0
   -0.6750    1.1089    3.5611 C   0  0  0  0  0  4           0  0  0
    1.5303   -0.0000   -0.0000 C   0  0  0  0  0  4           0  0  0
  1  6  1  0     0  0
  2  7  1  0     0  0
  3 18  2  0     0  0
  4 19  1  0     0  0
  5 20  1  0     0  0
  5 21  1  0     0  0
  5 22  1  0     0  0
  6 10  2  0     0  0
  6 11  1  0     0  0
  7 12  2  0     0  0
  7 13  1  0     0  0
  8 14  2  0     0  0
  8 15  1  0     0  0
  8 18  1  0     0  0
  9 16  2  0     0  0
  9 17  1  0     0  0
  9 19  1  0     0  0
 10 16  1  0     0  0
 11 17  2  0     0  0
 12 14  1  0     0  0
 13 15  2  0     0  0
 18 23  1  0     0  0
 19 24  1  0     0  0
 19 25  1  0     0  0
 20 24  1  0     0  0
 21 25  1  0     0  0
 22 26  1  0     0  0
 23 26  1  0     0  0
M  END
> <standard_type>
pIC50

> <# Confs.>
25

> <canonical_smiles>
O=C(CCCN1CCC(C2=CC=C(Cl)C=C2)(O)CC1)C3=CC=C(F)C=C3

> <standard_relation>
=

> <Publication_ID>
nan

> <predicted_activity_value>
nan

> <actual_activity_value>
0.5528419686577808

> <Compound>
Haloperidol 

> <standard_units>
uM

> hash
15886590527871891675

$$$$
25
XXILIB    08252103503D 0   0.00000     0.00000

 26 28  0     1  0            999 V2000
   -4.6149    0.5595    9.1093 Cl  0  0  0  0  0  1           0  0  0
    6.4251   -6.0167    0.6526 F   0  0  0  0  0  1           0  0  0
    4.3042   -0.1169    0.6638 O   0  0  0  0  0  2           0  0  0
   -2.6985    2.3031    3.0291 O   0  0  0  0  0  2           0  0  0
   -0.5791   -0.0000    1.3469 N   0  0  2  0  0  3           0  0  0
   -3.9265    0.7016    7.5379 C   0  0  0  0  0  4           0  0  0
    5.7609   -4.8522    0.6557 C   0  0  0  0  0  4           0  0  0
    4.3954   -2.4554    0.6632 C   0  0  0  0  0  4           0  0  0
   -2.7976    0.9367    4.9716 C   0  0  0  0  0  4           0  0  0
   -2.5419    0.7269    7.3872 C   0  0  0  0  0  4           0  0  0
   -4.7559    0.7916    6.4235 C   0  0  0  0  0  4           0  0  0
    4.5144   -4.7776    1.2746 C   0  0  0  0  0  4           0  0  0
    6.3309   -3.7385    0.0412 C   0  0  0  0  0  4           0  0  0
    3.8224   -3.5684    1.2805 C   0  0  0  0  0  4           0  0  0
    5.6443   -2.5263    0.0440 C   0  0  0  0  0  4           0  0  0
   -1.9830    0.8437    6.1113 C   0  0  0  0  0  4           0  0  0
   -4.1931    0.9086    5.1507 C   0  0  0  0  0  4           0  0  0
    3.6657   -1.1659    0.6731 C   0  0  0  0  0  4           0  0  0
   -2.2182    1.0693    3.5821 C   0  0  1  0  0  4           0  0  0
   -2.0464    0.0000    1.2651 C   0  0  0  0  0  4           0  0  0
   -0.1077    1.1464    2.1373 C   0  0  0  0  0  4           0  0  0
    0.0000    0.0000   -0.0000 C   0  0  0  0  0  4           0  0  0
    2.1548   -1.2034    0.6948 C   0  0  0  0  0  4           0  0  0
   -2.6892   -0.0704    2.6558 C   0  0  0  0  0  4           0  0  0
   -0.6750    1.1089    3.5611 C   0  0  0  0  0  4           0  0  0
    1.5303    0.0000   -0.0000 C   0  0  0  0  0  4           0  0  0
  1  6  1  0     0  0
  2  7  1  0     0  0
  3 18  2  0     0  0
  4 19  1  0     0  0
  5 20  1  0     0  0
  5 21  1  0     0  0
  5 22  1  0     0  0
  6 10  2  0     0  0
  6 11  1  0     0  0
  7 12  2  0     0  0
  7 13  1  0     0  0
  8 14  2  0     0  0
  8 15  1  0     0  0
  8 18  1  0     0  0
  9 16  2  0     0  0
  9 17  1  0     0  0
  9 19  1  0     0  0
 10 16  1  0     0  0
 11 17  2  0     0  0
 12 14  1  0     0  0
 13 15  2  0     0  0
 18 23  1  0     0  0
 19 24  1  0     0  0
 19 25  1  0     0  0
 20 24  1  0     0  0
 21 25  1  0     0  0
 22 26  1  0     0  0
 23 26  1  0     0  0
M  END
> <standard_type>
pIC50

> <# Confs.>
25

> <canonical_smiles>
O=C(CCCN1CCC(C2=CC=C(Cl)C=C2)(O)CC1)C3=CC=C(F)C=C3

> <standard_relation>
=

> <Publication_ID>
nan

> <predicted_activity_value>
nan

> <actual_activity_value>
0.5528419686577808

> <Compound>
Haloperidol 

> <standard_units>
uM

> hash
15886590527871891675

$$$$
25
XXILIB    08252103503D 0   0.00000     0.00000

 26 28  0     1  0            999 V2000
   -4.9725   -6.2611    2.0873 Cl  0  0  0  0  0  1           0  0  0
    1.4932    7.0526    3.2917 F   0  0  0  0  0  1           0  0  0
    1.4935    2.6169   -1.1399 O   0  0  0  0  0  2           0  0  0
   -2.6710   -0.7452    4.8956 O   0  0  0  0  0  2           0  0  0
   -0.5791   -0.0000    1.3469 N   0  0  2  0  0  3           0  0  0
   -4.2116   -4.7732    2.5001 C   0  0  0  0  0  4           0  0  0
    1.5544    5.9614    2.5154 C   0  0  0  0  0  4           0  0  0
    1.6820    3.7164    0.9174 C   0  0  0  0  0  4           0  0  0
   -2.9677   -2.3401    3.1698 C   0  0  0  0  0  4           0  0  0
   -4.4816   -3.6266    1.7565 C   0  0  0  0  0  4           0  0  0
   -3.3285   -4.7212    3.5749 C   0  0  0  0  0  4           0  0  0
    0.7130    5.8612    1.4088 C   0  0  0  0  0  4           0  0  0
    2.4595    4.9489    2.8294 C   0  0  0  0  0  4           0  0  0
    0.7754    4.7290    0.5995 C   0  0  0  0  0  4           0  0  0
    2.5270    3.8143    2.0239 C   0  0  0  0  0  4           0  0  0
   -3.8626   -2.4188    2.0909 C   0  0  0  0  0  4           0  0  0
   -2.7120   -3.5124    3.9052 C   0  0  0  0  0  4           0  0  0
    1.7560    2.5136    0.0554 C   0  0  0  0  0  4           0  0  0
   -2.2814   -1.0479    3.5481 C   0  0  1  0  0  4           0  0  0
   -0.1664   -1.1841    2.1176 C   0  0  0  0  0  4           0  0  0
   -2.0455    0.0904    1.2695 C   0  0  0  0  0  4           0  0  0
    0.0000    0.0000    0.0000 C   0  0  0  0  0  4           0  0  0
    2.1548    1.2034    0.6948 C   0  0  0  0  0  4           0  0  0
   -0.7410   -1.1423    3.5371 C   0  0  0  0  0  4           0  0  0
   -2.6711    0.1584    2.6661 C   0  0  0  0  0  4           0  0  0
    1.5303    0.0000   -0.0000 C   0  0  0  0  0  4           0  0  0
  1  6  1  0     0  0
  2  7  1  0     0  0
  3 18  2  0     0  0
  4 19  1  0     0  0
  5 20  1  0     0  0
  5 21  1  0     0  0
  5 22  1  0     0  0
  6 10  2  0     0  0
  6 11  1  0     0  0
  7 12  2  0     0  0
  7 13  1  0     0  0
  8 14  2  0     0  0
  8 15  1  0     0  0
  8 18  1  0     0  0
  9 16  2  0     0  0
  9 17  1  0     0  0
  9 19  1  0     0  0
 10 16  1  0     0  0
 11 17  2  0     0  0
 12 14  1  0     0  0
 13 15  2  0     0  0
 18 23  1  0     0  0
 19 24  1  0     0  0
 19 25  1  0     0  0
 20 24  1  0     0  0
 21 25  1  0     0  0
 22 26  1  0     0  0
 23 26  1  0     0  0
M  END
> <standard_type>
pIC50

> <# Confs.>
25

> <canonical_smiles>
O=C(CCCN1CCC(C2=CC=C(Cl)C=C2)(O)CC1)C3=CC=C(F)C=C3

> <standard_relation>
=

> <Publication_ID>
nan

> <predicted_activity_value>
nan

> <actual_activity_value>
0.5528419686577808

> <Compound>
Haloperidol 

> <standard_units>
uM

> hash
15886590527871891675

$$$$
25
XXILIB    08252103503D 0   0.00000     0.00000

 26 28  0     1  0            999 V2000
   -4.6149    0.5595    9.1093 Cl  0  0  0  0  0  1           0  0  0
   -0.9486   -6.2404    3.2084 F   0  0  0  0  0  1           0  0  0
    2.0014   -2.7824   -1.1176 O   0  0  0  0  0  2           0  0  0
   -2.6985    2.3031    3.0291 O   0  0  0  0  0  2           0  0  0
   -0.5791   -0.0000    1.3469 N   0  0  2  0  0  3           0  0  0
   -3.9265    0.7016    7.5379 C   0  0  0  0  0  4           0  0  0
   -0.2983   -5.3469    2.4495 C   0  0  0  0  0  4           0  0  0
    1.0397   -3.5071    0.8892 C   0  0  0  0  0  4           0  0  0
   -2.7976    0.9367    4.9716 C   0  0  0  0  0  4           0  0  0
   -2.5419    0.7269    7.3872 C   0  0  0  0  0  4           0  0  0
   -4.7559    0.7916    6.4235 C   0  0  0  0  0  4           0  0  0
   -0.9100   -4.8529    1.2988 C   0  0  0  0  0  4           0  0  0
    0.9765   -4.9283    2.8271 C   0  0  0  0  0  4           0  0  0
   -0.2372   -3.9233    0.5089 C   0  0  0  0  0  4           0  0  0
    1.6545   -3.9986    2.0418 C   0  0  0  0  0  4           0  0  0
   -1.9830    0.8437    6.1113 C   0  0  0  0  0  4           0  0  0
   -4.1931    0.9086    5.1507 C   0  0  0  0  0  4           0  0  0
    1.7560   -2.5136    0.0554 C   0  0  0  0  0  4           0  0  0
   -2.2182    1.0693    3.5821 C   0  0  1  0  0  4           0  0  0
   -2.0464    0.0000    1.2651 C   0  0  0  0  0  4           0  0  0
   -0.1077    1.1464    2.1373 C   0  0  0  0  0  4           0  0  0
    0.0000    0.0000   -0.0000 C   0  0  0  0  0  4           0  0  0
    2.1548   -1.2034    0.6948 C   0  0  0  0  0  4           0  0  0
   -2.6892   -0.0704    2.6558 C   0  0  0  0  0  4           0  0  0
   -0.6750    1.1089    3.5611 C   0  0  0  0  0  4           0  0  0
    1.5303   -0.0000    0.0000 C   0  0  0  0  0  4           0  0  0
  1  6  1  0     0  0
  2  7  1  0     0  0
  3 18  2  0     0  0
  4 19  1  0     0  0
  5 20  1  0     0  0
  5 21  1  0     0  0
  5 22  1  0     0  0
  6 10  2  0     0  0
  6 11  1  0     0  0
  7 12  2  0     0  0
  7 13  1  0     0  0
  8 14  2  0     0  0
  8 15  1  0     0  0
  8 18  1  0     0  0
  9 16  2  0     0  0
  9 17  1  0     0  0
  9 19  1  0     0  0
 10 16  1  0     0  0
 11 17  2  0     0  0
 12 14  1  0     0  0
 13 15  2  0     0  0
 18 23  1  0     0  0
 19 24  1  0     0  0
 19 25  1  0     0  0
 20 24  1  0     0  0
 21 25  1  0     0  0
 22 26  1  0     0  0
 23 26  1  0     0  0
M  END
> <standard_type>
pIC50

> <# Confs.>
25

> <canonical_smiles>
O=C(CCCN1CCC(C2=CC=C(Cl)C=C2)(O)CC1)C3=CC=C(F)C=C3

> <standard_relation>
=

> <Publication_ID>
nan

> <predicted_activity_value>
nan

> <actual_activity_value>
0.5528419686577808

> <Compound>
Haloperidol 

> <standard_units>
uM

> hash
15886590527871891675

$$$$
25
XXILIB    08252103503D 0   0.00000     0.00000

 26 28  0     1  0            999 V2000
   -4.1765   -0.8350    9.2978 Cl  0  0  0  0  0  1           0  0  0
    1.4905    7.0353    3.3156 F   0  0  0  0  0  1           0  0  0
    1.4935    2.6169   -1.1399 O   0  0  0  0  0  2           0  0  0
   -2.7636   -2.2622    3.0011 O   0  0  0  0  0  2           0  0  0
   -0.5791   -0.0000    1.3469 N   0  0  2  0  0  3           0  0  0
   -3.6173   -0.8960    7.6709 C   0  0  0  0  0  4           0  0  0
    1.5529    5.9502    2.5309 C   0  0  0  0  0  4           0  0  0
    1.6820    3.7164    0.9174 C   0  0  0  0  0  4           0  0  0
   -2.7075   -0.9933    5.0103 C   0  0  0  0  0  4           0  0  0
   -3.9235    0.1414    6.7931 C   0  0  0  0  0  4           0  0  0
   -2.8617   -1.9820    7.2380 C   0  0  0  0  0  4           0  0  0
    2.4271    5.9404    1.4455 C   0  0  0  0  0  4           0  0  0
    0.7432    4.8522    2.8169 C   0  0  0  0  0  4           0  0  0
    2.4950    4.8137    0.6290 C   0  0  0  0  0  4           0  0  0
    0.8066    3.7223    2.0045 C   0  0  0  0  0  4           0  0  0
   -3.4705    0.0912    5.4717 C   0  0  0  0  0  4           0  0  0
   -2.4116   -2.0282    5.9167 C   0  0  0  0  0  4           0  0  0
    1.7560    2.5136    0.0554 C   0  0  0  0  0  4           0  0  0
   -2.2108   -1.0740    3.5853 C   0  0  1  0  0  4           0  0  0
   -0.1444   -1.1953    2.0829 C   0  0  0  0  0  4           0  0  0
   -2.0469    0.0723    1.3034 C   0  0  0  0  0  4           0  0  0
    0.0000    0.0000    0.0000 C   0  0  0  0  0  4           0  0  0
    2.1548    1.2034    0.6948 C   0  0  0  0  0  4           0  0  0
   -0.6745   -1.1957    3.5221 C   0  0  0  0  0  4           0  0  0
   -2.6412    0.1268    2.7156 C   0  0  0  0  0  4           0  0  0
    1.5303    0.0000   -0.0000 C   0  0  0  0  0  4           0  0  0
  1  6  1  0     0  0
  2  7  1  0     0  0
  3 18  2  0     0  0
  4 19  1  0     0  0
  5 20  1  0     0  0
  5 21  1  0     0  0
  5 22  1  0     0  0
  6 10  2  0     0  0
  6 11  1  0     0  0
  7 12  2  0     0  0
  7 13  1  0     0  0
  8 14  2  0     0  0
  8 15  1  0     0  0
  8 18  1  0     0  0
  9 16  2  0     0  0
  9 17  1  0     0  0
  9 19  1  0     0  0
 10 16  1  0     0  0
 11 17  2  0     0  0
 12 14  1  0     0  0
 13 15  2  0     0  0
 18 23  1  0     0  0
 19 24  1  0     0  0
 19 25  1  0     0  0
 20 24  1  0     0  0
 21 25  1  0     0  0
 22 26  1  0     0  0
 23 26  1  0     0  0
M  END
> <standard_type>
pIC50

> <# Confs.>
25

> <canonical_smiles>
O=C(CCCN1CCC(C2=CC=C(Cl)C=C2)(O)CC1)C3=CC=C(F)C=C3

> <standard_relation>
=

> <Publication_ID>
nan

> <predicted_activity_value>
nan

> <actual_activity_value>
0.5528419686577808

> <Compound>
Haloperidol 

> <standard_units>
uM

> hash
15886590527871891675

$$$$
25
XXILIB    08252103503D 0   0.00000     0.00000

 26 28  0     1  0            999 V2000
   -4.6149    0.5595    9.1093 Cl  0  0  0  0  0  1           0  0  0
    3.8042   -7.2295    2.2258 F   0  0  0  0  0  1           0  0  0
    1.0089   -2.5780   -0.9172 O   0  0  0  0  0  2           0  0  0
   -2.6985    2.3031    3.0291 O   0  0  0  0  0  2           0  0  0
   -0.5791   -0.0000    1.3469 N   0  0  2  0  0  3           0  0  0
   -3.9265    0.7016    7.5379 C   0  0  0  0  0  4           0  0  0
    3.3105   -6.0966    1.7061 C   0  0  0  0  0  4           0  0  0
    2.2957   -3.7656    0.6354 C   0  0  0  0  0  4           0  0  0
   -2.7976    0.9367    4.9716 C   0  0  0  0  0  4           0  0  0
   -2.5419    0.7269    7.3872 C   0  0  0  0  0  4           0  0  0
   -4.7559    0.7916    6.4235 C   0  0  0  0  0  4           0  0  0
    3.6554   -4.8740    2.2796 C   0  0  0  0  0  4           0  0  0
    2.4632   -6.1636    0.6014 C   0  0  0  0  0  4           0  0  0
    3.1449   -3.6950    1.7409 C   0  0  0  0  0  4           0  0  0
    1.9496   -4.9882    0.0578 C   0  0  0  0  0  4           0  0  0
   -1.9830    0.8437    6.1113 C   0  0  0  0  0  4           0  0  0
   -4.1931    0.9086    5.1507 C   0  0  0  0  0  4           0  0  0
    1.7560   -2.5136    0.0554 C   0  0  0  0  0  4           0  0  0
   -2.2182    1.0693    3.5821 C   0  0  1  0  0  4           0  0  0
   -2.0464    0.0000    1.2651 C   0  0  0  0  0  4           0  0  0
   -0.1077    1.1464    2.1373 C   0  0  0  0  0  4           0  0  0
    0.0000    0.0000   -0.0000 C   0  0  0  0  0  4           0  0  0
    2.1548   -1.2034    0.6948 C   0  0  0  0  0  4           0  0  0
   -2.6892   -0.0704    2.6558 C   0  0  0  0  0  4           0  0  0
   -0.6750    1.1089    3.5611 C   0  0  0  0  0  4           0  0  0
    1.5303   -0.0000    0.0000 C   0  0  0  0  0  4           0  0  0
  1  6  1  0     0  0
  2  7  1  0     0  0
  3 18  2  0     0  0
  4 19  1  0     0  0
  5 20  1  0     0  0
  5 21  1  0     0  0
  5 22  1  0     0  0
  6 10  2  0     0  0
  6 11  1  0     0  0
  7 12  2  0     0  0
  7 13  1  0     0  0
  8 14  2  0     0  0
  8 15  1  0     0  0
  8 18  1  0     0  0
  9 16  2  0     0  0
  9 17  1  0     0  0
  9 19  1  0     0  0
 10 16  1  0     0  0
 11 17  2  0     0  0
 12 14  1  0     0  0
 13 15  2  0     0  0
 18 23  1  0     0  0
 19 24  1  0     0  0
 19 25  1  0     0  0
 20 24  1  0     0  0
 21 25  1  0     0  0
 22 26  1  0     0  0
 23 26  1  0     0  0
M  END
> <standard_type>
pIC50

> <# Confs.>
25

> <canonical_smiles>
O=C(CCCN1CCC(C2=CC=C(Cl)C=C2)(O)CC1)C3=CC=C(F)C=C3

> <standard_relation>
=

> <Publication_ID>
nan

> <predicted_activity_value>
nan

> <actual_activity_value>
0.5528419686577808

> <Compound>
Haloperidol 

> <standard_units>
uM

> hash
15886590527871891675

$$$$
25
XXILIB    08252103503D 0   0.00000     0.00000

 26 28  0     1  0            999 V2000
   -4.1765   -0.8350    9.2978 Cl  0  0  0  0  0  1           0  0  0
    6.4349    5.3729    3.0767 F   0  0  0  0  0  1           0  0  0
    4.3002    0.2553    0.1474 O   0  0  0  0  0  2           0  0  0
   -2.7636   -2.2622    3.0011 O   0  0  0  0  0  2           0  0  0
   -0.5791   -0.0000    1.3469 N   0  0  2  0  0  3           0  0  0
   -3.6173   -0.8960    7.6709 C   0  0  0  0  0  4           0  0  0
    5.7694    4.3614    2.5015 C   0  0  0  0  0  4           0  0  0
    4.4004    2.2803    1.3162 C   0  0  0  0  0  4           0  0  0
   -2.7075   -0.9933    5.0103 C   0  0  0  0  0  4           0  0  0
   -3.9235    0.1414    6.7931 C   0  0  0  0  0  4           0  0  0
   -2.8617   -1.9820    7.2380 C   0  0  0  0  0  4           0  0  0
    4.3757    4.3657    2.5126 C   0  0  0  0  0  4           0  0  0
    6.4844    3.3258    1.9021 C   0  0  0  0  0  4           0  0  0
    3.6814    3.3164    1.9144 C   0  0  0  0  0  4           0  0  0
    5.7961    2.2738    1.3019 C   0  0  0  0  0  4           0  0  0
   -3.4705    0.0912    5.4717 C   0  0  0  0  0  4           0  0  0
   -2.4116   -2.0282    5.9167 C   0  0  0  0  0  4           0  0  0
    3.6657    1.1659    0.6731 C   0  0  0  0  0  4           0  0  0
   -2.2108   -1.0740    3.5853 C   0  0  1  0  0  4           0  0  0
   -0.1444   -1.1953    2.0829 C   0  0  0  0  0  4           0  0  0
   -2.0469    0.0723    1.3034 C   0  0  0  0  0  4           0  0  0
    0.0000    0.0000    0.0000 C   0  0  0  0  0  4           0  0  0
    2.1548    1.2034    0.6948 C   0  0  0  0  0  4           0  0  0
   -0.6745   -1.1957    3.5221 C   0  0  0  0  0  4           0  0  0
   -2.6412    0.1268    2.7156 C   0  0  0  0  0  4           0  0  0
    1.5303   -0.0000   -0.0000 C   0  0  0  0  0  4           0  0  0
  1  6  1  0     0  0
  2  7  1  0     0  0
  3 18  2  0     0  0
  4 19  1  0     0  0
  5 20  1  0     0  0
  5 21  1  0     0  0
  5 22  1  0     0  0
  6 10  2  0     0  0
  6 11  1  0     0  0
  7 12  2  0     0  0
  7 13  1  0     0  0
  8 14  2  0     0  0
  8 15  1  0     0  0
  8 18  1  0     0  0
  9 16  2  0     0  0
  9 17  1  0     0  0
  9 19  1  0     0  0
 10 16  1  0     0  0
 11 17  2  0     0  0
 12 14  1  0     0  0
 13 15  2  0     0  0
 18 23  1  0     0  0
 19 24  1  0     0  0
 19 25  1  0     0  0
 20 24  1  0     0  0
 21 25  1  0     0  0
 22 26  1  0     0  0
 23 26  1  0     0  0
M  END
> <standard_type>
pIC50

> <# Confs.>
25

> <canonical_smiles>
O=C(CCCN1CCC(C2=CC=C(Cl)C=C2)(O)CC1)C3=CC=C(F)C=C3

> <standard_relation>
=

> <Publication_ID>
nan

> <predicted_activity_value>
nan

> <actual_activity_value>
0.5528419686577808

> <Compound>
Haloperidol 

> <standard_units>
uM

> hash
15886590527871891675

$$$$
25
XXILIB    08252103503D 0   0.00000     0.00000

 26 28  0     1  0            999 V2000
   -4.1765   -0.8350    9.2978 Cl  0  0  0  0  0  1           0  0  0
   -0.9275    6.2679    3.1938 F   0  0  0  0  0  1           0  0  0
    2.0014    2.7824   -1.1176 O   0  0  0  0  0  2           0  0  0
   -2.7636   -2.2622    3.0011 O   0  0  0  0  0  2           0  0  0
   -0.5791   -0.0000    1.3469 N   0  0  2  0  0  3           0  0  0
   -3.6173   -0.8960    7.6709 C   0  0  0  0  0  4           0  0  0
   -0.2848    5.3647    2.4400 C   0  0  0  0  0  4           0  0  0
    1.0392    3.5069    0.8890 C   0  0  0  0  0  4           0  0  0
   -2.7075   -0.9933    5.0103 C   0  0  0  0  0  4           0  0  0
   -3.9235    0.1414    6.7931 C   0  0  0  0  0  4           0  0  0
   -2.8617   -1.9820    7.2380 C   0  0  0  0  0  4           0  0  0
   -0.5339    5.3161    1.0695 C   0  0  0  0  0  4           0  0  0
    0.6213    4.4928    3.0414 C   0  0  0  0  0  4           0  0  0
    0.1335    4.3793    0.2835 C   0  0  0  0  0  4           0  0  0
    1.2922    3.5540    2.2609 C   0  0  0  0  0  4           0  0  0
   -3.4705    0.0912    5.4717 C   0  0  0  0  0  4           0  0  0
   -2.4116   -2.0282    5.9167 C   0  0  0  0  0  4           0  0  0
    1.7560    2.5136    0.0554 C   0  0  0  0  0  4           0  0  0
   -2.2108   -1.0740    3.5853 C   0  0  1  0  0  4           0  0  0
   -0.1444   -1.1953    2.0829 C   0  0  0  0  0  4           0  0  0
   -2.0469    0.0723    1.3034 C   0  0  0  0  0  4           0  0  0
    0.0000    0.0000    0.0000 C   0  0  0  0  0  4           0  0  0
    2.1548    1.2034    0.6948 C   0  0  0  0  0  4           0  0  0
   -0.6745   -1.1957    3.5221 C   0  0  0  0  0  4           0  0  0
   -2.6412    0.1268    2.7156 C   0  0  0  0  0  4           0  0  0
    1.5303    0.0000   -0.0000 C   0  0  0  0  0  4           0  0  0
  1  6  1  0     0  0
  2  7  1  0     0  0
  3 18  2  0     0  0
  4 19  1  0     0  0
  5 20  1  0     0  0
  5 21  1  0     0  0
  5 22  1  0     0  0
  6 10  2  0     0  0
  6 11  1  0     0  0
  7 12  2  0     0  0
  7 13  1  0     0  0
  8 14  2  0     0  0
  8 15  1  0     0  0
  8 18  1  0     0  0
  9 16  2  0     0  0
  9 17  1  0     0  0
  9 19  1  0     0  0
 10 16  1  0     0  0
 11 17  2  0     0  0
 12 14  1  0     0  0
 13 15  2  0     0  0
 18 23  1  0     0  0
 19 24  1  0     0  0
 19 25  1  0     0  0
 20 24  1  0     0  0
 21 25  1  0     0  0
 22 26  1  0     0  0
 23 26  1  0     0  0
M  END
> <standard_type>
pIC50

> <# Confs.>
25

> <canonical_smiles>
O=C(CCCN1CCC(C2=CC=C(Cl)C=C2)(O)CC1)C3=CC=C(F)C=C3

> <standard_relation>
=

> <Publication_ID>
nan

> <predicted_activity_value>
nan

> <actual_activity_value>
0.5528419686577808

> <Compound>
Haloperidol 

> <standard_units>
uM

> hash
15886590527871891675

$$$$
25
XXILIB    08252103503D 0   0.00000     0.00000

 26 28  0     1  0            999 V2000
   -4.1765   -0.8350    9.2978 Cl  0  0  0  0  0  1           0  0  0
    6.4251    3.5735    4.8843 F   0  0  0  0  0  1           0  0  0
    4.3042    0.6333   -0.2307 O   0  0  0  0  0  2           0  0  0
   -2.7636   -2.2622    3.0011 O   0  0  0  0  0  2           0  0  0
   -0.5791   -0.0000    1.3469 N   0  0  2  0  0  3           0  0  0
   -3.6173   -0.8960    7.6709 C   0  0  0  0  0  4           0  0  0
    5.7609    2.9940    3.8743 C   0  0  0  0  0  4           0  0  0
    4.3954    1.8021    1.7948 C   0  0  0  0  0  4           0  0  0
   -2.7075   -0.9933    5.0103 C   0  0  0  0  0  4           0  0  0
   -3.9235    0.1414    6.7931 C   0  0  0  0  0  4           0  0  0
   -2.8617   -1.9820    7.2380 C   0  0  0  0  0  4           0  0  0
    4.5144    3.4926    3.5002 C   0  0  0  0  0  4           0  0  0
    6.3309    1.9049    3.2170 C   0  0  0  0  0  4           0  0  0
    3.8224    2.8932    2.4501 C   0  0  0  0  0  4           0  0  0
    5.6443    1.3013    2.1659 C   0  0  0  0  0  4           0  0  0
   -3.4705    0.0912    5.4717 C   0  0  0  0  0  4           0  0  0
   -2.4116   -2.0282    5.9167 C   0  0  0  0  0  4           0  0  0
    3.6657    1.1659    0.6731 C   0  0  0  0  0  4           0  0  0
   -2.2108   -1.0740    3.5853 C   0  0  1  0  0  4           0  0  0
   -0.1444   -1.1953    2.0829 C   0  0  0  0  0  4           0  0  0
   -2.0469    0.0723    1.3034 C   0  0  0  0  0  4           0  0  0
    0.0000    0.0000    0.0000 C   0  0  0  0  0  4           0  0  0
    2.1548    1.2034    0.6948 C   0  0  0  0  0  4           0  0  0
   -0.6745   -1.1957    3.5221 C   0  0  0  0  0  4           0  0  0
   -2.6412    0.1268    2.7156 C   0  0  0  0  0  4           0  0  0
    1.5303   -0.0000   -0.0000 C   0  0  0  0  0  4           0  0  0
  1  6  1  0     0  0
  2  7  1  0     0  0
  3 18  2  0     0  0
  4 19  1  0     0  0
  5 20  1  0     0  0
  5 21  1  0     0  0
  5 22  1  0     0  0
  6 10  2  0     0  0
  6 11  1  0     0  0
  7 12  2  0     0  0
  7 13  1  0     0  0
  8 14  2  0     0  0
  8 15  1  0     0  0
  8 18  1  0     0  0
  9 16  2  0     0  0
  9 17  1  0     0  0
  9 19  1  0     0  0
 10 16  1  0     0  0
 11 17  2  0     0  0
 12 14  1  0     0  0
 13 15  2  0     0  0
 18 23  1  0     0  0
 19 24  1  0     0  0
 19 25  1  0     0  0
 20 24  1  0     0  0
 21 25  1  0     0  0
 22 26  1  0     0  0
 23 26  1  0     0  0
M  END
> <standard_type>
pIC50

> <# Confs.>
25

> <canonical_smiles>
O=C(CCCN1CCC(C2=CC=C(Cl)C=C2)(O)CC1)C3=CC=C(F)C=C3

> <standard_relation>
=

> <Publication_ID>
nan

> <predicted_activity_value>
nan

> <actual_activity_value>
0.5528419686577808

> <Compound>
Haloperidol 

> <standard_units>
uM

> hash
15886590527871891675

$$$$
25
XXILIB    08252103503D 0   0.00000     0.00000

 26 28  0     1  0            999 V2000
   -4.6149    0.5595    9.1093 Cl  0  0  0  0  0  1           0  0  0
    1.4922    0.6792   -7.7539 F   0  0  0  0  0  1           0  0  0
    1.4935    2.2956   -1.6963 O   0  0  0  0  0  2           0  0  0
   -2.6985    2.3031    3.0291 O   0  0  0  0  0  2           0  0  0
   -0.5791   -0.0000    1.3469 N   0  0  2  0  0  3           0  0  0
   -3.9265    0.7016    7.5379 C   0  0  0  0  0  4           0  0  0
    1.5542    0.8045   -6.4206 C   0  0  0  0  0  4           0  0  0
    1.6825    1.0639   -3.6773 C   0  0  0  0  0  4           0  0  0
   -2.7976    0.9367    4.9716 C   0  0  0  0  0  4           0  0  0
   -2.5419    0.7269    7.3872 C   0  0  0  0  0  4           0  0  0
   -4.7559    0.7916    6.4235 C   0  0  0  0  0  4           0  0  0
    2.4534    0.0195   -5.7010 C   0  0  0  0  0  4           0  0  0
    0.7192    1.7186   -5.7803 C   0  0  0  0  0  4           0  0  0
    2.5210    0.1485   -4.3155 C   0  0  0  0  0  4           0  0  0
    0.7821    1.8526   -4.3951 C   0  0  0  0  0  4           0  0  0
   -1.9830    0.8437    6.1113 C   0  0  0  0  0  4           0  0  0
   -4.1931    0.9086    5.1507 C   0  0  0  0  0  4           0  0  0
    1.7560    1.2088   -2.2045 C   0  0  0  0  0  4           0  0  0
   -2.2182    1.0693    3.5821 C   0  0  1  0  0  4           0  0  0
   -2.0464    0.0000    1.2651 C   0  0  0  0  0  4           0  0  0
   -0.1077    1.1464    2.1373 C   0  0  0  0  0  4           0  0  0
    0.0000    0.0000   -0.0000 C   0  0  0  0  0  4           0  0  0
    2.1548    0.0000   -1.3896 C   0  0  0  0  0  4           0  0  0
   -2.6892   -0.0704    2.6558 C   0  0  0  0  0  4           0  0  0
   -0.6750    1.1089    3.5611 C   0  0  0  0  0  4           0  0  0
    1.5303    0.0000    0.0000 C   0  0  0  0  0  4           0  0  0
  1  6  1  0     0  0
  2  7  1  0     0  0
  3 18  2  0     0  0
  4 19  1  0     0  0
  5 20  1  0     0  0
  5 21  1  0     0  0
  5 22  1  0     0  0
  6 10  2  0     0  0
  6 11  1  0     0  0
  7 12  2  0     0  0
  7 13  1  0     0  0
  8 14  2  0     0  0
  8 15  1  0     0  0
  8 18  1  0     0  0
  9 16  2  0     0  0
  9 17  1  0     0  0
  9 19  1  0     0  0
 10 16  1  0     0  0
 11 17  2  0     0  0
 12 14  1  0     0  0
 13 15  2  0     0  0
 18 23  1  0     0  0
 19 24  1  0     0  0
 19 25  1  0     0  0
 20 24  1  0     0  0
 21 25  1  0     0  0
 22 26  1  0     0  0
 23 26  1  0     0  0
M  END
> <standard_type>
pIC50

> <# Confs.>
25

> <canonical_smiles>
O=C(CCCN1CCC(C2=CC=C(Cl)C=C2)(O)CC1)C3=CC=C(F)C=C3

> <standard_relation>
=

> <Publication_ID>
nan

> <predicted_activity_value>
nan

> <actual_activity_value>
0.5528419686577808

> <Compound>
Haloperidol 

> <standard_units>
uM

> hash
15886590527871891675

$$$$
25
XXILIB    08252103503D 0   0.00000     0.00000

 26 28  0     1  0            999 V2000
   -4.9725   -6.2611    2.0873 Cl  0  0  0  0  0  1           0  0  0
    1.4905    7.0353    3.3156 F   0  0  0  0  0  1           0  0  0
    1.4935    2.6169   -1.1399 O   0  0  0  0  0  2           0  0  0
   -2.6710   -0.7452    4.8956 O   0  0  0  0  0  2           0  0  0
   -0.5791   -0.0000    1.3469 N   0  0  2  0  0  3           0  0  0
   -4.2116   -4.7732    2.5001 C   0  0  0  0  0  4           0  0  0
    1.5529    5.9502    2.5309 C   0  0  0  0  0  4           0  0  0
    1.6820    3.7164    0.9174 C   0  0  0  0  0  4           0  0  0
   -2.9677   -2.3401    3.1698 C   0  0  0  0  0  4           0  0  0
   -4.4816   -3.6266    1.7565 C   0  0  0  0  0  4           0  0  0
   -3.3285   -4.7212    3.5749 C   0  0  0  0  0  4           0  0  0
    2.4271    5.9404    1.4455 C   0  0  0  0  0  4           0  0  0
    0.7432    4.8522    2.8169 C   0  0  0  0  0  4           0  0  0
    2.4950    4.8137    0.6290 C   0  0  0  0  0  4           0  0  0
    0.8066    3.7223    2.0045 C   0  0  0  0  0  4           0  0  0
   -3.8626   -2.4188    2.0909 C   0  0  0  0  0  4           0  0  0
   -2.7120   -3.5124    3.9052 C   0  0  0  0  0  4           0  0  0
    1.7560    2.5136    0.0554 C   0  0  0  0  0  4           0  0  0
   -2.2814   -1.0479    3.5481 C   0  0  1  0  0  4           0  0  0
   -0.1664   -1.1841    2.1176 C   0  0  0  0  0  4           0  0  0
   -2.0455    0.0904    1.2695 C   0  0  0  0  0  4           0  0  0
    0.0000    0.0000    0.0000 C   0  0  0  0  0  4           0  0  0
    2.1548    1.2034    0.6948 C   0  0  0  0  0  4           0  0  0
   -0.7410   -1.1423    3.5371 C   0  0  0  0  0  4           0  0  0
   -2.6711    0.1584    2.6661 C   0  0  0  0  0  4           0  0  0
    1.5303    0.0000   -0.0000 C   0  0  0  0  0  4           0  0  0
  1  6  1  0     0  0
  2  7  1  0     0  0
  3 18  2  0     0  0
  4 19  1  0     0  0
  5 20  1  0     0  0
  5 21  1  0     0  0
  5 22  1  0     0  0
  6 10  2  0     0  0
  6 11  1  0     0  0
  7 12  2  0     0  0
  7 13  1  0     0  0
  8 14  2  0     0  0
  8 15  1  0     0  0
  8 18  1  0     0  0
  9 16  2  0     0  0
  9 17  1  0     0  0
  9 19  1  0     0  0
 10 16  1  0     0  0
 11 17  2  0     0  0
 12 14  1  0     0  0
 13 15  2  0     0  0
 18 23  1  0     0  0
 19 24  1  0     0  0
 19 25  1  0     0  0
 20 24  1  0     0  0
 21 25  1  0     0  0
 22 26  1  0     0  0
 23 26  1  0     0  0
M  END
> <standard_type>
pIC50

> <# Confs.>
25

> <canonical_smiles>
O=C(CCCN1CCC(C2=CC=C(Cl)C=C2)(O)CC1)C3=CC=C(F)C=C3

> <standard_relation>
=

> <Publication_ID>
nan

> <predicted_activity_value>
nan

> <actual_activity_value>
0.5528419686577808

> <Compound>
Haloperidol 

> <standard_units>
uM

> hash
15886590527871891675

$$$$
25
XXILIB    08252103503D 0   0.00000     0.00000

 26 28  0     1  0            999 V2000
   -4.7951    6.3726    2.1635 Cl  0  0  0  0  0  1           0  0  0
    1.4922   -7.0547    3.2887 F   0  0  0  0  0  1           0  0  0
    1.4935   -2.6169   -1.1399 O   0  0  0  0  0  2           0  0  0
   -2.5475    0.8228    4.9487 O   0  0  0  0  0  2           0  0  0
   -0.5791   -0.0000    1.3469 N   0  0  2  0  0  3           0  0  0
   -4.0385    4.8820    2.5745 C   0  0  0  0  0  4           0  0  0
    1.5542   -5.9626    2.5136 C   0  0  0  0  0  4           0  0  0
    1.6825   -3.7165    0.9173 C   0  0  0  0  0  4           0  0  0
   -2.7981    2.4467    3.2428 C   0  0  0  0  0  4           0  0  0
   -2.6497    4.7780    2.5442 C   0  0  0  0  0  4           0  0  0
   -4.8170    3.7858    2.9348 C   0  0  0  0  0  4           0  0  0
    2.4534   -4.9470    2.8336 C   0  0  0  0  0  4           0  0  0
    0.7192   -5.8651    1.4018 C   0  0  0  0  0  4           0  0  0
    2.5210   -3.8116    2.0291 C   0  0  0  0  0  4           0  0  0
    0.7821   -4.7325    0.5931 C   0  0  0  0  0  4           0  0  0
   -2.0354    3.5672    2.8767 C   0  0  0  0  0  4           0  0  0
   -4.1990    2.5779    3.2658 C   0  0  0  0  0  4           0  0  0
    1.7560   -2.5136    0.0554 C   0  0  0  0  0  4           0  0  0
   -2.1585    1.1252    3.6010 C   0  0  1  0  0  4           0  0  0
   -2.0505   -0.0000    1.3075 C   0  0  0  0  0  4           0  0  0
   -0.0752    1.1479    2.1168 C   0  0  0  0  0  4           0  0  0
    0.0000    0.0000   -0.0000 C   0  0  0  0  0  4           0  0  0
    2.1548   -1.2034    0.6948 C   0  0  0  0  0  4           0  0  0
   -2.6371   -0.0494    2.7217 C   0  0  0  0  0  4           0  0  0
   -0.6149    1.1338    3.5502 C   0  0  0  0  0  4           0  0  0
    1.5303   -0.0000   -0.0000 C   0  0  0  0  0  4           0  0  0
  1  6  1  0     0  0
  2  7  1  0     0  0
  3 18  2  0     0  0
  4 19  1  0     0  0
  5 20  1  0     0  0
  5 21  1  0     0  0
  5 22  1  0     0  0
  6 10  2  0     0  0
  6 11  1  0     0  0
  7 12  2  0     0  0
  7 13  1  0     0  0
  8 14  2  0     0  0
  8 15  1  0     0  0
  8 18  1  0     0  0
  9 16  2  0     0  0
  9 17  1  0     0  0
  9 19  1  0     0  0
 10 16  1  0     0  0
 11 17  2  0     0  0
 12 14  1  0     0  0
 13 15  2  0     0  0
 18 23  1  0     0  0
 19 24  1  0     0  0
 19 25  1  0     0  0
 20 24  1  0     0  0
 21 25  1  0     0  0
 22 26  1  0     0  0
 23 26  1  0     0  0
M  END
> <standard_type>
pIC50

> <# Confs.>
25

> <canonical_smiles>
O=C(CCCN1CCC(C2=CC=C(Cl)C=C2)(O)CC1)C3=CC=C(F)C=C3

> <standard_relation>
=

> <Publication_ID>
nan

> <predicted_activity_value>
nan

> <actual_activity_value>
0.5528419686577808

> <Compound>
Haloperidol 

> <standard_units>
uM

> hash
15886590527871891675

$$$$
25
XXILIB    08252103503D 0   0.00000     0.00000

 26 28  0     1  0            999 V2000
   -4.1765   -0.8350    9.2978 Cl  0  0  0  0  0  1           0  0  0
    6.4218    6.0185    0.6526 F   0  0  0  0  0  1           0  0  0
    4.3042    0.1169    0.6638 O   0  0  0  0  0  2           0  0  0
   -2.7636   -2.2622    3.0011 O   0  0  0  0  0  2           0  0  0
   -0.5791   -0.0000    1.3469 N   0  0  2  0  0  3           0  0  0
   -3.6173   -0.8960    7.6709 C   0  0  0  0  0  4           0  0  0
    5.7590    4.8533    0.6553 C   0  0  0  0  0  4           0  0  0
    4.3954    2.4554    0.6626 C   0  0  0  0  0  4           0  0  0
   -2.7075   -0.9933    5.0103 C   0  0  0  0  0  4           0  0  0
   -3.9235    0.1414    6.7931 C   0  0  0  0  0  4           0  0  0
   -2.8617   -1.9820    7.2380 C   0  0  0  0  0  4           0  0  0
    6.3261    3.7424    0.0333 C   0  0  0  0  0  4           0  0  0
    4.5162    4.7752    1.2816 C   0  0  0  0  0  4           0  0  0
    5.6402    2.5299    0.0357 C   0  0  0  0  0  4           0  0  0
    3.8254    3.5655    1.2878 C   0  0  0  0  0  4           0  0  0
   -3.4705    0.0912    5.4717 C   0  0  0  0  0  4           0  0  0
   -2.4116   -2.0282    5.9167 C   0  0  0  0  0  4           0  0  0
    3.6657    1.1659    0.6731 C   0  0  0  0  0  4           0  0  0
   -2.2108   -1.0740    3.5853 C   0  0  1  0  0  4           0  0  0
   -0.1444   -1.1953    2.0829 C   0  0  0  0  0  4           0  0  0
   -2.0469    0.0723    1.3034 C   0  0  0  0  0  4           0  0  0
    0.0000    0.0000    0.0000 C   0  0  0  0  0  4           0  0  0
    2.1548    1.2034    0.6948 C   0  0  0  0  0  4           0  0  0
   -0.6745   -1.1957    3.5221 C   0  0  0  0  0  4           0  0  0
   -2.6412    0.1268    2.7156 C   0  0  0  0  0  4           0  0  0
    1.5303   -0.0000    0.0000 C   0  0  0  0  0  4           0  0  0
  1  6  1  0     0  0
  2  7  1  0     0  0
  3 18  2  0     0  0
  4 19  1  0     0  0
  5 20  1  0     0  0
  5 21  1  0     0  0
  5 22  1  0     0  0
  6 10  2  0     0  0
  6 11  1  0     0  0
  7 12  2  0     0  0
  7 13  1  0     0  0
  8 14  2  0     0  0
  8 15  1  0     0  0
  8 18  1  0     0  0
  9 16  2  0     0  0
  9 17  1  0     0  0
  9 19  1  0     0  0
 10 16  1  0     0  0
 11 17  2  0     0  0
 12 14  1  0     0  0
 13 15  2  0     0  0
 18 23  1  0     0  0
 19 24  1  0     0  0
 19 25  1  0     0  0
 20 24  1  0     0  0
 21 25  1  0     0  0
 22 26  1  0     0  0
 23 26  1  0     0  0
M  END
> <standard_type>
pIC50

> <# Confs.>
25

> <canonical_smiles>
O=C(CCCN1CCC(C2=CC=C(Cl)C=C2)(O)CC1)C3=CC=C(F)C=C3

> <standard_relation>
=

> <Publication_ID>
nan

> <predicted_activity_value>
nan

> <actual_activity_value>
0.5528419686577808

> <Compound>
Haloperidol 

> <standard_units>
uM

> hash
15886590527871891675

$$$$
25
XXILIB    08252103503D 0   0.00000     0.00000

 26 28  0     1  0            999 V2000
   -4.9725   -6.2611    2.0873 Cl  0  0  0  0  0  1           0  0  0
    6.4349    5.3729    3.0767 F   0  0  0  0  0  1           0  0  0
    4.3002    0.2553    0.1474 O   0  0  0  0  0  2           0  0  0
   -2.6710   -0.7452    4.8956 O   0  0  0  0  0  2           0  0  0
   -0.5791   -0.0000    1.3469 N   0  0  2  0  0  3           0  0  0
   -4.2116   -4.7732    2.5001 C   0  0  0  0  0  4           0  0  0
    5.7694    4.3614    2.5015 C   0  0  0  0  0  4           0  0  0
    4.4004    2.2803    1.3162 C   0  0  0  0  0  4           0  0  0
   -2.9677   -2.3401    3.1698 C   0  0  0  0  0  4           0  0  0
   -4.4816   -3.6266    1.7565 C   0  0  0  0  0  4           0  0  0
   -3.3285   -4.7212    3.5749 C   0  0  0  0  0  4           0  0  0
    4.3757    4.3657    2.5126 C   0  0  0  0  0  4           0  0  0
    6.4844    3.3258    1.9021 C   0  0  0  0  0  4           0  0  0
    3.6814    3.3164    1.9144 C   0  0  0  0  0  4           0  0  0
    5.7961    2.2738    1.3019 C   0  0  0  0  0  4           0  0  0
   -3.8626   -2.4188    2.0909 C   0  0  0  0  0  4           0  0  0
   -2.7120   -3.5124    3.9052 C   0  0  0  0  0  4           0  0  0
    3.6657    1.1659    0.6731 C   0  0  0  0  0  4           0  0  0
   -2.2814   -1.0479    3.5481 C   0  0  1  0  0  4           0  0  0
   -0.1664   -1.1841    2.1176 C   0  0  0  0  0  4           0  0  0
   -2.0455    0.0904    1.2695 C   0  0  0  0  0  4           0  0  0
    0.0000    0.0000    0.0000 C   0  0  0  0  0  4           0  0  0
    2.1548    1.2034    0.6948 C   0  0  0  0  0  4           0  0  0
   -0.7410   -1.1423    3.5371 C   0  0  0  0  0  4           0  0  0
   -2.6711    0.1584    2.6661 C   0  0  0  0  0  4           0  0  0
    1.5303   -0.0000   -0.0000 C   0  0  0  0  0  4           0  0  0
  1  6  1  0     0  0
  2  7  1  0     0  0
  3 18  2  0     0  0
  4 19  1  0     0  0
  5 20  1  0     0  0
  5 21  1  0     0  0
  5 22  1  0     0  0
  6 10  2  0     0  0
  6 11  1  0     0  0
  7 12  2  0     0  0
  7 13  1  0     0  0
  8 14  2  0     0  0
  8 15  1  0     0  0
  8 18  1  0     0  0
  9 16  2  0     0  0
  9 17  1  0     0  0
  9 19  1  0     0  0
 10 16  1  0     0  0
 11 17  2  0     0  0
 12 14  1  0     0  0
 13 15  2  0     0  0
 18 23  1  0     0  0
 19 24  1  0     0  0
 19 25  1  0     0  0
 20 24  1  0     0  0
 21 25  1  0     0  0
 22 26  1  0     0  0
 23 26  1  0     0  0
M  END
> <standard_type>
pIC50

> <# Confs.>
25

> <canonical_smiles>
O=C(CCCN1CCC(C2=CC=C(Cl)C=C2)(O)CC1)C3=CC=C(F)C=C3

> <standard_relation>
=

> <Publication_ID>
nan

> <predicted_activity_value>
nan

> <actual_activity_value>
0.5528419686577808

> <Compound>
Haloperidol 

> <standard_units>
uM

> hash
15886590527871891675

$$$$
25
XXILIB    08252103503D 0   0.00000     0.00000

 26 28  0     1  0            999 V2000
   -4.5105    0.4551    9.1428 Cl  0  0  0  0  0  1           0  0  0
    1.4763   -7.0324    3.3185 F   0  0  0  0  0  1           0  0  0
    1.4935   -2.6169   -1.1399 O   0  0  0  0  0  2           0  0  0
   -2.6985    2.3031    3.0291 O   0  0  0  0  0  2           0  0  0
   -0.5791   -0.0000    1.3469 N   0  0  2  0  0  3           0  0  0
   -3.8587    0.6371    7.5600 C   0  0  0  0  0  4           0  0  0
    1.5436   -5.9483    2.5328 C   0  0  0  0  0  4           0  0  0
    1.6825   -3.7165    0.9173 C   0  0  0  0  0  4           0  0  0
   -2.7976    0.9367    4.9716 C   0  0  0  0  0  4           0  0  0
   -4.1734    1.7653    6.8060 C   0  0  0  0  0  4           0  0  0
   -3.0201   -0.3442    7.0389 C   0  0  0  0  0  4           0  0  0
    0.4028   -5.5236    1.8540 C   0  0  0  0  0  4           0  0  0
    2.7531   -5.2662    2.4112 C   0  0  0  0  0  4           0  0  0
    0.4696   -4.3966    1.0378 C   0  0  0  0  0  4           0  0  0
    2.8264   -4.1383    1.5969 C   0  0  0  0  0  4           0  0  0
   -3.6452    1.9123    5.5202 C   0  0  0  0  0  4           0  0  0
   -2.4949   -0.1934    5.7536 C   0  0  0  0  0  4           0  0  0
    1.7560   -2.5136    0.0554 C   0  0  0  0  0  4           0  0  0
   -2.2182    1.0693    3.5821 C   0  0  1  0  0  4           0  0  0
   -2.0464    0.0000    1.2651 C   0  0  0  0  0  4           0  0  0
   -0.1077    1.1464    2.1373 C   0  0  0  0  0  4           0  0  0
    0.0000    0.0000   -0.0000 C   0  0  0  0  0  4           0  0  0
    2.1548   -1.2034    0.6948 C   0  0  0  0  0  4           0  0  0
   -2.6892   -0.0704    2.6558 C   0  0  0  0  0  4           0  0  0
   -0.6750    1.1089    3.5611 C   0  0  0  0  0  4           0  0  0
    1.5303   -0.0000   -0.0000 C   0  0  0  0  0  4           0  0  0
  1  6  1  0     0  0
  2  7  1  0     0  0
  3 18  2  0     0  0
  4 19  1  0     0  0
  5 20  1  0     0  0
  5 21  1  0     0  0
  5 22  1  0     0  0
  6 10  2  0     0  0
  6 11  1  0     0  0
  7 12  2  0     0  0
  7 13  1  0     0  0
  8 14  2  0     0  0
  8 15  1  0     0  0
  8 18  1  0     0  0
  9 16  2  0     0  0
  9 17  1  0     0  0
  9 19  1  0     0  0
 10 16  1  0     0  0
 11 17  2  0     0  0
 12 14  1  0     0  0
 13 15  2  0     0  0
 18 23  1  0     0  0
 19 24  1  0     0  0
 19 25  1  0     0  0
 20 24  1  0     0  0
 21 25  1  0     0  0
 22 26  1  0     0  0
 23 26  1  0     0  0
M  END
> <standard_type>
pIC50

> <# Confs.>
25

> <canonical_smiles>
O=C(CCCN1CCC(C2=CC=C(Cl)C=C2)(O)CC1)C3=CC=C(F)C=C3

> <standard_relation>
=

> <Publication_ID>
nan

> <predicted_activity_value>
nan

> <actual_activity_value>
0.5528419686577808

> <Compound>
Haloperidol 

> <standard_units>
uM

> hash
15886590527871891675

$$$$
25
XXILIB    08252103503D 0   0.00000     0.00000

 26 28  0     1  0            999 V2000
   -4.5105    0.4551    9.1428 Cl  0  0  0  0  0  1           0  0  0
    6.4437   -5.3486    3.1089 F   0  0  0  0  0  1           0  0  0
    4.3002   -0.2553    0.1474 O   0  0  0  0  0  2           0  0  0
   -2.6985    2.3031    3.0291 O   0  0  0  0  0  2           0  0  0
   -0.5791   -0.0000    1.3469 N   0  0  2  0  0  3           0  0  0
   -3.8587    0.6371    7.5600 C   0  0  0  0  0  4           0  0  0
    5.7751   -4.3454    2.5226 C   0  0  0  0  0  4           0  0  0
    4.4004   -2.2800    1.3167 C   0  0  0  0  0  4           0  0  0
   -2.7976    0.9367    4.9716 C   0  0  0  0  0  4           0  0  0
   -4.1734    1.7653    6.8060 C   0  0  0  0  0  4           0  0  0
   -3.0201   -0.3442    7.0389 C   0  0  0  0  0  4           0  0  0
    4.5195   -3.9845    3.0082 C   0  0  0  0  0  4           0  0  0
    6.3495   -3.6819    1.4397 C   0  0  0  0  0  4           0  0  0
    3.8229   -2.9416    2.4017 C   0  0  0  0  0  4           0  0  0
    5.6583   -2.6379    0.8290 C   0  0  0  0  0  4           0  0  0
   -3.6452    1.9123    5.5202 C   0  0  0  0  0  4           0  0  0
   -2.4949   -0.1934    5.7536 C   0  0  0  0  0  4           0  0  0
    3.6657   -1.1659    0.6731 C   0  0  0  0  0  4           0  0  0
   -2.2182    1.0693    3.5821 C   0  0  1  0  0  4           0  0  0
   -2.0464    0.0000    1.2651 C   0  0  0  0  0  4           0  0  0
   -0.1077    1.1464    2.1373 C   0  0  0  0  0  4           0  0  0
    0.0000    0.0000   -0.0000 C   0  0  0  0  0  4           0  0  0
    2.1548   -1.2034    0.6948 C   0  0  0  0  0  4           0  0  0
   -2.6892   -0.0704    2.6558 C   0  0  0  0  0  4           0  0  0
   -0.6750    1.1089    3.5611 C   0  0  0  0  0  4           0  0  0
    1.5303    0.0000   -0.0000 C   0  0  0  0  0  4           0  0  0
  1  6  1  0     0  0
  2  7  1  0     0  0
  3 18  2  0     0  0
  4 19  1  0     0  0
  5 20  1  0     0  0
  5 21  1  0     0  0
  5 22  1  0     0  0
  6 10  2  0     0  0
  6 11  1  0     0  0
  7 12  2  0     0  0
  7 13  1  0     0  0
  8 14  2  0     0  0
  8 15  1  0     0  0
  8 18  1  0     0  0
  9 16  2  0     0  0
  9 17  1  0     0  0
  9 19  1  0     0  0
 10 16  1  0     0  0
 11 17  2  0     0  0
 12 14  1  0     0  0
 13 15  2  0     0  0
 18 23  1  0     0  0
 19 24  1  0     0  0
 19 25  1  0     0  0
 20 24  1  0     0  0
 21 25  1  0     0  0
 22 26  1  0     0  0
 23 26  1  0     0  0
M  END
> <standard_type>
pIC50

> <# Confs.>
25

> <canonical_smiles>
O=C(CCCN1CCC(C2=CC=C(Cl)C=C2)(O)CC1)C3=CC=C(F)C=C3

> <standard_relation>
=

> <Publication_ID>
nan

> <predicted_activity_value>
nan

> <actual_activity_value>
0.5528419686577808

> <Compound>
Haloperidol 

> <standard_units>
uM

> hash
15886590527871891675

$$$$
25
XXILIB    08252103503D 0   0.00000     0.00000

 26 28  0     1  0            999 V2000
   -4.9725   -6.2611    2.0873 Cl  0  0  0  0  0  1           0  0  0
    6.4251    3.5735    4.8843 F   0  0  0  0  0  1           0  0  0
    4.3042    0.6333   -0.2307 O   0  0  0  0  0  2           0  0  0
   -2.6710   -0.7452    4.8956 O   0  0  0  0  0  2           0  0  0
   -0.5791   -0.0000    1.3469 N   0  0  2  0  0  3           0  0  0
   -4.2116   -4.7732    2.5001 C   0  0  0  0  0  4           0  0  0
    5.7609    2.9940    3.8743 C   0  0  0  0  0  4           0  0  0
    4.3954    1.8021    1.7948 C   0  0  0  0  0  4           0  0  0
   -2.9677   -2.3401    3.1698 C   0  0  0  0  0  4           0  0  0
   -4.4816   -3.6266    1.7565 C   0  0  0  0  0  4           0  0  0
   -3.3285   -4.7212    3.5749 C   0  0  0  0  0  4           0  0  0
    4.5144    3.4926    3.5002 C   0  0  0  0  0  4           0  0  0
    6.3309    1.9049    3.2170 C   0  0  0  0  0  4           0  0  0
    3.8224    2.8932    2.4501 C   0  0  0  0  0  4           0  0  0
    5.6443    1.3013    2.1659 C   0  0  0  0  0  4           0  0  0
   -3.8626   -2.4188    2.0909 C   0  0  0  0  0  4           0  0  0
   -2.7120   -3.5124    3.9052 C   0  0  0  0  0  4           0  0  0
    3.6657    1.1659    0.6731 C   0  0  0  0  0  4           0  0  0
   -2.2814   -1.0479    3.5481 C   0  0  1  0  0  4           0  0  0
   -0.1664   -1.1841    2.1176 C   0  0  0  0  0  4           0  0  0
   -2.0455    0.0904    1.2695 C   0  0  0  0  0  4           0  0  0
    0.0000    0.0000    0.0000 C   0  0  0  0  0  4           0  0  0
    2.1548    1.2034    0.6948 C   0  0  0  0  0  4           0  0  0
   -0.7410   -1.1423    3.5371 C   0  0  0  0  0  4           0  0  0
   -2.6711    0.1584    2.6661 C   0  0  0  0  0  4           0  0  0
    1.5303   -0.0000   -0.0000 C   0  0  0  0  0  4           0  0  0
  1  6  1  0     0  0
  2  7  1  0     0  0
  3 18  2  0     0  0
  4 19  1  0     0  0
  5 20  1  0     0  0
  5 21  1  0     0  0
  5 22  1  0     0  0
  6 10  2  0     0  0
  6 11  1  0     0  0
  7 12  2  0     0  0
  7 13  1  0     0  0
  8 14  2  0     0  0
  8 15  1  0     0  0
  8 18  1  0     0  0
  9 16  2  0     0  0
  9 17  1  0     0  0
  9 19  1  0     0  0
 10 16  1  0     0  0
 11 17  2  0     0  0
 12 14  1  0     0  0
 13 15  2  0     0  0
 18 23  1  0     0  0
 19 24  1  0     0  0
 19 25  1  0     0  0
 20 24  1  0     0  0
 21 25  1  0     0  0
 22 26  1  0     0  0
 23 26  1  0     0  0
M  END
> <standard_type>
pIC50

> <# Confs.>
25

> <canonical_smiles>
O=C(CCCN1CCC(C2=CC=C(Cl)C=C2)(O)CC1)C3=CC=C(F)C=C3

> <standard_relation>
=

> <Publication_ID>
nan

> <predicted_activity_value>
nan

> <actual_activity_value>
0.5528419686577808

> <Compound>
Haloperidol 

> <standard_units>
uM

> hash
15886590527871891675

$$$$
25
XXILIB    08252103503D 0   0.00000     0.00000

 26 28  0     1  0            999 V2000
   -4.1765   -0.8350    9.2978 Cl  0  0  0  0  0  1           0  0  0
    1.4932   -0.6756   -7.7536 F   0  0  0  0  0  1           0  0  0
    1.4935   -2.2956   -1.6963 O   0  0  0  0  0  2           0  0  0
   -2.7636   -2.2622    3.0011 O   0  0  0  0  0  2           0  0  0
   -0.5791   -0.0000    1.3469 N   0  0  2  0  0  3           0  0  0
   -3.6173   -0.8960    7.6709 C   0  0  0  0  0  4           0  0  0
    1.5544   -0.8023   -6.4204 C   0  0  0  0  0  4           0  0  0
    1.6820   -1.0637   -3.6772 C   0  0  0  0  0  4           0  0  0
   -2.7075   -0.9933    5.0103 C   0  0  0  0  0  4           0  0  0
   -3.9235    0.1414    6.7931 C   0  0  0  0  0  4           0  0  0
   -2.8617   -1.9820    7.2380 C   0  0  0  0  0  4           0  0  0
    0.7130   -1.7106   -5.7804 C   0  0  0  0  0  4           0  0  0
    2.4595   -0.0241   -5.7006 C   0  0  0  0  0  4           0  0  0
    0.7754   -1.8453   -4.3952 C   0  0  0  0  0  4           0  0  0
    2.5270   -0.1544   -4.3152 C   0  0  0  0  0  4           0  0  0
   -3.4705    0.0912    5.4717 C   0  0  0  0  0  4           0  0  0
   -2.4116   -2.0282    5.9167 C   0  0  0  0  0  4           0  0  0
    1.7560   -1.2088   -2.2045 C   0  0  0  0  0  4           0  0  0
   -2.2108   -1.0740    3.5853 C   0  0  1  0  0  4           0  0  0
   -0.1444   -1.1953    2.0829 C   0  0  0  0  0  4           0  0  0
   -2.0469    0.0723    1.3034 C   0  0  0  0  0  4           0  0  0
    0.0000    0.0000    0.0000 C   0  0  0  0  0  4           0  0  0
    2.1548    0.0000   -1.3896 C   0  0  0  0  0  4           0  0  0
   -0.6745   -1.1957    3.5221 C   0  0  0  0  0  4           0  0  0
   -2.6412    0.1268    2.7156 C   0  0  0  0  0  4           0  0  0
    1.5303   -0.0000    0.0000 C   0  0  0  0  0  4           0  0  0
  1  6  1  0     0  0
  2  7  1  0     0  0
  3 18  2  0     0  0
  4 19  1  0     0  0
  5 20  1  0     0  0
  5 21  1  0     0  0
  5 22  1  0     0  0
  6 10  2  0     0  0
  6 11  1  0     0  0
  7 12  2  0     0  0
  7 13  1  0     0  0
  8 14  2  0     0  0
  8 15  1  0     0  0
  8 18  1  0     0  0
  9 16  2  0     0  0
  9 17  1  0     0  0
  9 19  1  0     0  0
 10 16  1  0     0  0
 11 17  2  0     0  0
 12 14  1  0     0  0
 13 15  2  0     0  0
 18 23  1  0     0  0
 19 24  1  0     0  0
 19 25  1  0     0  0
 20 24  1  0     0  0
 21 25  1  0     0  0
 22 26  1  0     0  0
 23 26  1  0     0  0
M  END
> <standard_type>
pIC50

> <# Confs.>
25

> <canonical_smiles>
O=C(CCCN1CCC(C2=CC=C(Cl)C=C2)(O)CC1)C3=CC=C(F)C=C3

> <standard_relation>
=

> <Publication_ID>
nan

> <predicted_activity_value>
nan

> <actual_activity_value>
0.5528419686577808

> <Compound>
Haloperidol 

> <standard_units>
uM

> hash
15886590527871891675

$$$$
25
XXILIB    08252103503D 0   0.00000     0.00000

 26 28  0     1  0            999 V2000
   -4.8495    7.5065   -0.4021 Cl  0  0  0  0  0  1           0  0  0
    1.4922   -7.0547    3.2887 F   0  0  0  0  0  1           0  0  0
    1.4935   -2.6169   -1.1399 O   0  0  0  0  0  2           0  0  0
   -2.8722    2.1854    2.9835 O   0  0  0  0  0  2           0  0  0
   -0.5791   -0.0000    1.3469 N   0  0  2  0  0  3           0  0  0
   -4.1503    6.0427    0.1739 C   0  0  0  0  0  4           0  0  0
    1.5542   -5.9626    2.5136 C   0  0  0  0  0  4           0  0  0
    1.6825   -3.7165    0.9173 C   0  0  0  0  0  4           0  0  0
   -3.0118    3.6477    1.1137 C   0  0  0  0  0  4           0  0  0
   -4.3971    4.8461   -0.4954 C   0  0  0  0  0  4           0  0  0
   -3.3416    6.0597    1.3067 C   0  0  0  0  0  4           0  0  0
    2.4534   -4.9470    2.8336 C   0  0  0  0  0  4           0  0  0
    0.7192   -5.8651    1.4018 C   0  0  0  0  0  4           0  0  0
    2.5210   -3.8116    2.0291 C   0  0  0  0  0  4           0  0  0
    0.7821   -4.7325    0.5931 C   0  0  0  0  0  4           0  0  0
   -3.8304    3.6573   -0.0269 C   0  0  0  0  0  4           0  0  0
   -2.7779    4.8695    1.7715 C   0  0  0  0  0  4           0  0  0
    1.7560   -2.5136    0.0554 C   0  0  0  0  0  4           0  0  0
   -2.3920    2.3752    1.6436 C   0  0  1  0  0  4           0  0  0
   -0.1937    1.1653    2.1536 C   0  0  0  0  0  4           0  0  0
   -2.0410   -0.1381    1.3169 C   0  0  0  0  0  4           0  0  0
    0.0000    0.0000    0.0000 C   0  0  0  0  0  4           0  0  0
    2.1548   -1.2034    0.6948 C   0  0  0  0  0  4           0  0  0
   -0.8528    2.4804    1.7153 C   0  0  0  0  0  4           0  0  0
   -2.7759    1.1178    0.8306 C   0  0  0  0  0  4           0  0  0
    1.5303   -0.0000   -0.0000 C   0  0  0  0  0  4           0  0  0
  1  6  1  0     0  0
  2  7  1  0     0  0
  3 18  2  0     0  0
  4 19  1  0     0  0
  5 20  1  0     0  0
  5 21  1  0     0  0
  5 22  1  0     0  0
  6 10  2  0     0  0
  6 11  1  0     0  0
  7 12  2  0     0  0
  7 13  1  0     0  0
  8 14  2  0     0  0
  8 15  1  0     0  0
  8 18  1  0     0  0
  9 16  2  0     0  0
  9 17  1  0     0  0
  9 19  1  0     0  0
 10 16  1  0     0  0
 11 17  2  0     0  0
 12 14  1  0     0  0
 13 15  2  0     0  0
 18 23  1  0     0  0
 19 24  1  0     0  0
 19 25  1  0     0  0
 20 24  1  0     0  0
 21 25  1  0     0  0
 22 26  1  0     0  0
 23 26  1  0     0  0
M  END
> <standard_type>
pIC50

> <# Confs.>
25

> <canonical_smiles>
O=C(CCCN1CCC(C2=CC=C(Cl)C=C2)(O)CC1)C3=CC=C(F)C=C3

> <standard_relation>
=

> <Publication_ID>
nan

> <predicted_activity_value>
nan

> <actual_activity_value>
0.5528419686577808

> <Compound>
Haloperidol 

> <standard_units>
uM

> hash
15886590527871891675

$$$$
25
XXILIB    08252103503D 0   0.00000     0.00000

 26 28  0     1  0            999 V2000
   -4.1765   -0.8350    9.2978 Cl  0  0  0  0  0  1           0  0  0
    3.7695    7.2320    2.2526 F   0  0  0  0  0  1           0  0  0
    1.0089    2.5780   -0.9172 O   0  0  0  0  0  2           0  0  0
   -2.7636   -2.2622    3.0011 O   0  0  0  0  0  2           0  0  0
   -0.5791   -0.0000    1.3469 N   0  0  2  0  0  3           0  0  0
   -3.6173   -0.8960    7.6709 C   0  0  0  0  0  4           0  0  0
    3.2879    6.0982    1.7237 C   0  0  0  0  0  4           0  0  0
    2.2952    3.7657    0.6358 C   0  0  0  0  0  4           0  0  0
   -2.7075   -0.9933    5.0103 C   0  0  0  0  0  4           0  0  0
   -3.9235    0.1414    6.7931 C   0  0  0  0  0  4           0  0  0
   -2.8617   -1.9820    7.2380 C   0  0  0  0  0  4           0  0  0
    3.6445    4.8748    2.2880 C   0  0  0  0  0  4           0  0  0
    2.4385    6.1654    0.6205 C   0  0  0  0  0  4           0  0  0
    3.1445    3.6950    1.7412 C   0  0  0  0  0  4           0  0  0
    1.9348    4.9893    0.0692 C   0  0  0  0  0  4           0  0  0
   -3.4705    0.0912    5.4717 C   0  0  0  0  0  4           0  0  0
   -2.4116   -2.0282    5.9167 C   0  0  0  0  0  4           0  0  0
    1.7560    2.5136    0.0554 C   0  0  0  0  0  4           0  0  0
   -2.2108   -1.0740    3.5853 C   0  0  1  0  0  4           0  0  0
   -0.1444   -1.1953    2.0829 C   0  0  0  0  0  4           0  0  0
   -2.0469    0.0723    1.3034 C   0  0  0  0  0  4           0  0  0
    0.0000    0.0000    0.0000 C   0  0  0  0  0  4           0  0  0
    2.1548    1.2034    0.6948 C   0  0  0  0  0  4           0  0  0
   -0.6745   -1.1957    3.5221 C   0  0  0  0  0  4           0  0  0
   -2.6412    0.1268    2.7156 C   0  0  0  0  0  4           0  0  0
    1.5303    0.0000   -0.0000 C   0  0  0  0  0  4           0  0  0
  1  6  1  0     0  0
  2  7  1  0     0  0
  3 18  2  0     0  0
  4 19  1  0     0  0
  5 20  1  0     0  0
  5 21  1  0     0  0
  5 22  1  0     0  0
  6 10  2  0     0  0
  6 11  1  0     0  0
  7 12  2  0     0  0
  7 13  1  0     0  0
  8 14  2  0     0  0
  8 15  1  0     0  0
  8 18  1  0     0  0
  9 16  2  0     0  0
  9 17  1  0     0  0
  9 19  1  0     0  0
 10 16  1  0     0  0
 11 17  2  0     0  0
 12 14  1  0     0  0
 13 15  2  0     0  0
 18 23  1  0     0  0
 19 24  1  0     0  0
 19 25  1  0     0  0
 20 24  1  0     0  0
 21 25  1  0     0  0
 22 26  1  0     0  0
 23 26  1  0     0  0
M  END
> <standard_type>
pIC50

> <# Confs.>
25

> <canonical_smiles>
O=C(CCCN1CCC(C2=CC=C(Cl)C=C2)(O)CC1)C3=CC=C(F)C=C3

> <standard_relation>
=

> <Publication_ID>
nan

> <predicted_activity_value>
nan

> <actual_activity_value>
0.5528419686577808

> <Compound>
Haloperidol 

> <standard_units>
uM

> hash
15886590527871891675

$$$$
25
XXILIB    08252103503D 0   0.00000     0.00000

 26 28  0     1  0            999 V2000
   -4.9725   -6.2611    2.0873 Cl  0  0  0  0  0  1           0  0  0
   -0.9275    6.2679    3.1938 F   0  0  0  0  0  1           0  0  0
    2.0014    2.7824   -1.1176 O   0  0  0  0  0  2           0  0  0
   -2.6710   -0.7452    4.8956 O   0  0  0  0  0  2           0  0  0
   -0.5791   -0.0000    1.3469 N   0  0  2  0  0  3           0  0  0
   -4.2116   -4.7732    2.5001 C   0  0  0  0  0  4           0  0  0
   -0.2848    5.3647    2.4400 C   0  0  0  0  0  4           0  0  0
    1.0392    3.5069    0.8890 C   0  0  0  0  0  4           0  0  0
   -2.9677   -2.3401    3.1698 C   0  0  0  0  0  4           0  0  0
   -4.4816   -3.6266    1.7565 C   0  0  0  0  0  4           0  0  0
   -3.3285   -4.7212    3.5749 C   0  0  0  0  0  4           0  0  0
   -0.5339    5.3161    1.0695 C   0  0  0  0  0  4           0  0  0
    0.6213    4.4928    3.0414 C   0  0  0  0  0  4           0  0  0
    0.1335    4.3793    0.2835 C   0  0  0  0  0  4           0  0  0
    1.2922    3.5540    2.2609 C   0  0  0  0  0  4           0  0  0
   -3.8626   -2.4188    2.0909 C   0  0  0  0  0  4           0  0  0
   -2.7120   -3.5124    3.9052 C   0  0  0  0  0  4           0  0  0
    1.7560    2.5136    0.0554 C   0  0  0  0  0  4           0  0  0
   -2.2814   -1.0479    3.5481 C   0  0  1  0  0  4           0  0  0
   -0.1664   -1.1841    2.1176 C   0  0  0  0  0  4           0  0  0
   -2.0455    0.0904    1.2695 C   0  0  0  0  0  4           0  0  0
    0.0000    0.0000    0.0000 C   0  0  0  0  0  4           0  0  0
    2.1548    1.2034    0.6948 C   0  0  0  0  0  4           0  0  0
   -0.7410   -1.1423    3.5371 C   0  0  0  0  0  4           0  0  0
   -2.6711    0.1584    2.6661 C   0  0  0  0  0  4           0  0  0
    1.5303    0.0000   -0.0000 C   0  0  0  0  0  4           0  0  0
  1  6  1  0     0  0
  2  7  1  0     0  0
  3 18  2  0     0  0
  4 19  1  0     0  0
  5 20  1  0     0  0
  5 21  1  0     0  0
  5 22  1  0     0  0
  6 10  2  0     0  0
  6 11  1  0     0  0
  7 12  2  0     0  0
  7 13  1  0     0  0
  8 14  2  0     0  0
  8 15  1  0     0  0
  8 18  1  0     0  0
  9 16  2  0     0  0
  9 17  1  0     0  0
  9 19  1  0     0  0
 10 16  1  0     0  0
 11 17  2  0     0  0
 12 14  1  0     0  0
 13 15  2  0     0  0
 18 23  1  0     0  0
 19 24  1  0     0  0
 19 25  1  0     0  0
 20 24  1  0     0  0
 21 25  1  0     0  0
 22 26  1  0     0  0
 23 26  1  0     0  0
M  END
> <standard_type>
pIC50

> <# Confs.>
25

> <canonical_smiles>
O=C(CCCN1CCC(C2=CC=C(Cl)C=C2)(O)CC1)C3=CC=C(F)C=C3

> <standard_relation>
=

> <Publication_ID>
nan

> <predicted_activity_value>
nan

> <actual_activity_value>
0.5528419686577808

> <Compound>
Haloperidol 

> <standard_units>
uM

> hash
15886590527871891675

$$$$
43
XXILIB    08252103503D 0   0.00000     0.00000

 25 26  0     1  0            999 V2000
    0.0000    0.0000    0.0000 O   0  0  0  0  0  2           0  0  0
   -3.9231   -0.4867    0.4902 O   0  0  0  0  0  2           0  0  0
    3.3272   -0.0000   -1.4626 O   0  0  0  0  0  2           0  0  0
    1.8309    2.4769   -1.7497 N   0  0  0  0  0  3           0  0  0
   -0.4644   -0.0000    1.2906 C   0  0  0  0  0  4           0  0  0
   -1.8585    0.0000    1.4806 C   0  0  0  0  0  4           0  0  0
   -3.2272    2.0937   -2.9005 C   0  0  0  0  0  4           0  0  0
    0.3703   -0.0363    2.4173 C   0  0  0  0  0  4           0  0  0
   -2.3938   -0.0571    2.7760 C   0  0  0  0  0  4           0  0  0
   -3.2213    1.4180   -4.1282 C   0  0  0  0  0  4           0  0  0
   -2.9050    3.4574   -2.8737 C   0  0  0  0  0  4           0  0  0
   -0.1709   -0.0796    3.7044 C   0  0  0  0  0  4           0  0  0
   -1.5500   -0.0936    3.8837 C   0  0  0  0  0  4           0  0  0
   -2.8890    2.0914   -5.3050 C   0  0  0  0  0  4           0  0  0
   -2.5731    4.1289   -4.0518 C   0  0  0  0  0  4           0  0  0
   -2.5641    3.4461   -5.2667 C   0  0  0  0  0  4           0  0  0
   -2.8256    0.0491    0.3590 C   0  0  0  0  0  4           0  0  0
    1.8991    0.0000   -1.4344 C   0  0  1  0  0  4           0  0  0
    1.4264    0.0000    0.0000 C   0  0  0  0  0  4           0  0  0
    1.3733    1.1794   -2.2569 C   0  0  0  0  0  4           0  0  0
    1.3224    3.5922   -2.5429 C   0  0  0  0  0  4           0  0  0
   -3.6054    1.3750   -1.6354 C   0  0  0  0  0  4           0  0  0
   -2.4099    0.7655   -0.9109 C   0  0  0  0  0  4           0  0  0
    1.7924    4.9539   -2.0245 C   0  0  0  0  0  4           0  0  0
    1.2439    6.0900   -2.8741 C   0  0  0  0  0  4           0  0  0
  1  5  1  0     0  0
  1 19  1  0     0  0
  2 17  2  0     0  0
  3 18  1  0     0  0
  4 20  1  0     0  0
  4 21  1  0     0  0
  5  6  1  0     0  0
  5  8  2  0     0  0
  6  9  2  0     0  0
  6 17  1  0     0  0
  7 10  2  0     0  0
  7 11  1  0     0  0
  7 22  1  0     0  0
  8 12  1  0     0  0
  9 13  1  0     0  0
 10 14  1  0     0  0
 11 15  2  0     0  0
 12 13  2  0     0  0
 14 16  2  0     0  0
 15 16  1  0     0  0
 17 23  1  0     0  0
 18 19  1  0     0  0
 18 20  1  0     0  0
 21 24  1  0     0  0
 22 23  1  0     0  0
 24 25  1  0     0  0
M  END
> <standard_type>
pIC50

> <# Confs.>
25

> <canonical_smiles>
CCCNCC(COC1=CC=CC=C1C(CCC2=CC=CC=C2)=O)O

> <standard_relation>
=

> <Publication_ID>
nan

> <predicted_activity_value>
nan

> <actual_activity_value>
0.3565473235138126

> <Compound>
Propafenone

> <standard_units>
uM

> hash
16913817477797103820

$$$$
43
XXILIB    08252103503D 0   0.00000     0.00000

 25 26  0     1  0            999 V2000
   -0.0000    0.0000    0.0000 O   0  0  0  0  0  2           0  0  0
   -3.2497   -2.1842    0.7325 O   0  0  0  0  0  2           0  0  0
    3.3272   -0.7313   -1.2666 O   0  0  0  0  0  2           0  0  0
    1.8309    1.2702   -2.7537 N   0  0  0  0  0  3           0  0  0
   -0.4644    0.0000    1.2906 C   0  0  0  0  0  4           0  0  0
   -1.7013   -0.6238    1.5372 C   0  0  0  0  0  4           0  0  0
   -3.7056   -0.1961   -3.0727 C   0  0  0  0  0  4           0  0  0
    0.2403    0.5520    2.3705 C   0  0  0  0  0  4           0  0  0
   -2.2015   -0.7058    2.8452 C   0  0  0  0  0  4           0  0  0
   -3.3301   -0.9863   -4.1674 C   0  0  0  0  0  4           0  0  0
   -4.0644    1.1410   -3.2909 C   0  0  0  0  0  4           0  0  0
   -0.2712    0.4777    3.6683 C   0  0  0  0  0  4           0  0  0
   -1.4879   -0.1529    3.9061 C   0  0  0  0  0  4           0  0  0
   -3.3038   -0.4461   -5.4543 C   0  0  0  0  0  4           0  0  0
   -4.0375    1.6792   -4.5787 C   0  0  0  0  0  4           0  0  0
   -3.6564    0.8865   -5.6598 C   0  0  0  0  0  4           0  0  0
   -2.5289   -1.2260    0.4657 C   0  0  0  0  0  4           0  0  0
    1.8991   -0.7172   -1.2422 C   0  0  1  0  0  4           0  0  0
    1.4264    0.0000   -0.0000 C   0  0  0  0  0  4           0  0  0
    1.3733   -0.1071   -2.5442 C   0  0  0  0  0  4           0  0  0
    1.3224    1.8395   -3.9983 C   0  0  0  0  0  4           0  0  0
   -3.7548   -0.7823   -1.6892 C   0  0  0  0  0  4           0  0  0
   -2.4453   -0.6250   -0.9237 C   0  0  0  0  0  4           0  0  0
    1.7924    3.2780   -4.2302 C   0  0  0  0  0  4           0  0  0
    1.2439    3.8370   -5.5340 C   0  0  0  0  0  4           0  0  0
  1  5  1  0     0  0
  1 19  1  0     0  0
  2 17  2  0     0  0
  3 18  1  0     0  0
  4 20  1  0     0  0
  4 21  1  0     0  0
  5  6  1  0     0  0
  5  8  2  0     0  0
  6  9  2  0     0  0
  6 17  1  0     0  0
  7 10  2  0     0  0
  7 11  1  0     0  0
  7 22  1  0     0  0
  8 12  1  0     0  0
  9 13  1  0     0  0
 10 14  1  0     0  0
 11 15  2  0     0  0
 12 13  2  0     0  0
 14 16  2  0     0  0
 15 16  1  0     0  0
 17 23  1  0     0  0
 18 19  1  0     0  0
 18 20  1  0     0  0
 21 24  1  0     0  0
 22 23  1  0     0  0
 24 25  1  0     0  0
M  END
> <standard_type>
pIC50

> <# Confs.>
25

> <canonical_smiles>
CCCNCC(COC1=CC=CC=C1C(CCC2=CC=CC=C2)=O)O

> <standard_relation>
=

> <Publication_ID>
nan

> <predicted_activity_value>
nan

> <actual_activity_value>
0.3565473235138126

> <Compound>
Propafenone

> <standard_units>
uM

> hash
16913817477797103820

$$$$
43
XXILIB    08252103503D 0   0.00000     0.00000

 25 26  0     1  0            999 V2000
   -0.0000    0.0000    0.0000 O   0  0  0  0  0  2           0  0  0
   -3.2497   -2.1842    0.7325 O   0  0  0  0  0  2           0  0  0
    1.4074   -2.0583   -1.2310 O   0  0  0  0  0  2           0  0  0
    4.1010   -1.4507   -0.3190 N   0  0  0  0  0  3           0  0  0
   -0.4644    0.0000    1.2906 C   0  0  0  0  0  4           0  0  0
   -1.7013   -0.6238    1.5372 C   0  0  0  0  0  4           0  0  0
   -3.7056   -0.1961   -3.0727 C   0  0  0  0  0  4           0  0  0
    0.2403    0.5520    2.3705 C   0  0  0  0  0  4           0  0  0
   -2.2015   -0.7058    2.8452 C   0  0  0  0  0  4           0  0  0
   -3.3301   -0.9863   -4.1674 C   0  0  0  0  0  4           0  0  0
   -4.0644    1.1410   -3.2909 C   0  0  0  0  0  4           0  0  0
   -0.2712    0.4777    3.6683 C   0  0  0  0  0  4           0  0  0
   -1.4879   -0.1529    3.9061 C   0  0  0  0  0  4           0  0  0
   -3.3038   -0.4461   -5.4543 C   0  0  0  0  0  4           0  0  0
   -4.0375    1.6792   -4.5787 C   0  0  0  0  0  4           0  0  0
   -3.6564    0.8865   -5.6598 C   0  0  0  0  0  4           0  0  0
   -2.5289   -1.2260    0.4657 C   0  0  0  0  0  4           0  0  0
    1.8991   -0.7172   -1.2422 C   0  0  1  0  0  4           0  0  0
    1.4264    0.0000    0.0000 C   0  0  0  0  0  4           0  0  0
    3.4215   -0.7341   -1.4029 C   0  0  0  0  0  4           0  0  0
    5.5516   -1.4591   -0.4846 C   0  0  0  0  0  4           0  0  0
   -3.7548   -0.7823   -1.6892 C   0  0  0  0  0  4           0  0  0
   -2.4453   -0.6250   -0.9237 C   0  0  0  0  0  4           0  0  0
    6.2745   -2.2043    0.6405 C   0  0  0  0  0  4           0  0  0
    7.7814   -2.1923    0.4346 C   0  0  0  0  0  4           0  0  0
  1  5  1  0     0  0
  1 19  1  0     0  0
  2 17  2  0     0  0
  3 18  1  0     0  0
  4 20  1  0     0  0
  4 21  1  0     0  0
  5  6  1  0     0  0
  5  8  2  0     0  0
  6  9  2  0     0  0
  6 17  1  0     0  0
  7 10  2  0     0  0
  7 11  1  0     0  0
  7 22  1  0     0  0
  8 12  1  0     0  0
  9 13  1  0     0  0
 10 14  1  0     0  0
 11 15  2  0     0  0
 12 13  2  0     0  0
 14 16  2  0     0  0
 15 16  1  0     0  0
 17 23  1  0     0  0
 18 19  1  0     0  0
 18 20  1  0     0  0
 21 24  1  0     0  0
 22 23  1  0     0  0
 24 25  1  0     0  0
M  END
> <standard_type>
pIC50

> <# Confs.>
25

> <canonical_smiles>
CCCNCC(COC1=CC=CC=C1C(CCC2=CC=CC=C2)=O)O

> <standard_relation>
=

> <Publication_ID>
nan

> <predicted_activity_value>
nan

> <actual_activity_value>
0.3565473235138126

> <Compound>
Propafenone

> <standard_units>
uM

> hash
16913817477797103820

$$$$
43
XXILIB    08252103503D 0   0.00000     0.00000

 25 26  0     1  0            999 V2000
    0.0000    0.0000    0.0000 O   0  0  0  0  0  2           0  0  0
   -3.7076    1.3412    0.5677 O   0  0  0  0  0  2           0  0  0
    1.4074    0.0370   -2.3980 O   0  0  0  0  0  2           0  0  0
    4.1010   -0.4491   -1.4158 N   0  0  0  0  0  3           0  0  0
   -0.4644    0.0000    1.2906 C   0  0  0  0  0  4           0  0  0
   -1.7013    0.6238    1.5372 C   0  0  0  0  0  4           0  0  0
   -1.7356    3.8225   -2.3638 C   0  0  0  0  0  4           0  0  0
    0.2061   -0.6149    2.3582 C   0  0  0  0  0  4           0  0  0
   -2.2552    0.6068    2.8258 C   0  0  0  0  0  4           0  0  0
   -1.9958    3.4424   -3.6873 C   0  0  0  0  0  4           0  0  0
   -0.8111    4.8474   -2.1203 C   0  0  0  0  0  4           0  0  0
   -0.3462   -0.6157    3.6413 C   0  0  0  0  0  4           0  0  0
   -1.5759   -0.0093    3.8744 C   0  0  0  0  0  4           0  0  0
   -1.3360    4.0684   -4.7462 C   0  0  0  0  0  4           0  0  0
   -0.1524    5.4722   -3.1808 C   0  0  0  0  0  4           0  0  0
   -0.4139    5.0823   -4.4931 C   0  0  0  0  0  4           0  0  0
   -2.4826    1.3111    0.4824 C   0  0  0  0  0  4           0  0  0
    1.8991    0.7172   -1.2422 C   0  0  1  0  0  4           0  0  0
    1.4264   -0.0000    0.0000 C   0  0  0  0  0  4           0  0  0
    3.4215    0.8479   -1.3372 C   0  0  0  0  0  4           0  0  0
    5.5516   -0.3099   -1.5059 C   0  0  0  0  0  4           0  0  0
   -2.4611    3.1638   -1.2237 C   0  0  0  0  0  4           0  0  0
   -1.7250    1.9510   -0.6645 C   0  0  0  0  0  4           0  0  0
    6.2745   -1.6569   -1.5887 C   0  0  0  0  0  4           0  0  0
    7.7814   -1.4725   -1.6813 C   0  0  0  0  0  4           0  0  0
  1  5  1  0     0  0
  1 19  1  0     0  0
  2 17  2  0     0  0
  3 18  1  0     0  0
  4 20  1  0     0  0
  4 21  1  0     0  0
  5  6  1  0     0  0
  5  8  2  0     0  0
  6  9  2  0     0  0
  6 17  1  0     0  0
  7 10  2  0     0  0
  7 11  1  0     0  0
  7 22  1  0     0  0
  8 12  1  0     0  0
  9 13  1  0     0  0
 10 14  1  0     0  0
 11 15  2  0     0  0
 12 13  2  0     0  0
 14 16  2  0     0  0
 15 16  1  0     0  0
 17 23  1  0     0  0
 18 19  1  0     0  0
 18 20  1  0     0  0
 21 24  1  0     0  0
 22 23  1  0     0  0
 24 25  1  0     0  0
M  END
> <standard_type>
pIC50

> <# Confs.>
25

> <canonical_smiles>
CCCNCC(COC1=CC=CC=C1C(CCC2=CC=CC=C2)=O)O

> <standard_relation>
=

> <Publication_ID>
nan

> <predicted_activity_value>
nan

> <actual_activity_value>
0.3565473235138126

> <Compound>
Propafenone

> <standard_units>
uM

> hash
16913817477797103820

$$$$
43
XXILIB    08252103503D 0   0.00000     0.00000

 25 26  0     1  0            999 V2000
   -0.0000    0.0000    0.0000 O   0  0  0  0  0  2           0  0  0
   -3.2497   -2.1842    0.7325 O   0  0  0  0  0  2           0  0  0
    3.3272   -0.0000   -1.4626 O   0  0  0  0  0  2           0  0  0
    1.8309    2.4769   -1.7497 N   0  0  0  0  0  3           0  0  0
   -0.4644    0.0000    1.2906 C   0  0  0  0  0  4           0  0  0
   -1.7013   -0.6238    1.5372 C   0  0  0  0  0  4           0  0  0
   -3.7056   -0.1961   -3.0727 C   0  0  0  0  0  4           0  0  0
    0.2403    0.5520    2.3705 C   0  0  0  0  0  4           0  0  0
   -2.2015   -0.7058    2.8452 C   0  0  0  0  0  4           0  0  0
   -3.3301   -0.9863   -4.1674 C   0  0  0  0  0  4           0  0  0
   -4.0644    1.1410   -3.2909 C   0  0  0  0  0  4           0  0  0
   -0.2712    0.4777    3.6683 C   0  0  0  0  0  4           0  0  0
   -1.4879   -0.1529    3.9061 C   0  0  0  0  0  4           0  0  0
   -3.3038   -0.4461   -5.4543 C   0  0  0  0  0  4           0  0  0
   -4.0375    1.6792   -4.5787 C   0  0  0  0  0  4           0  0  0
   -3.6564    0.8865   -5.6598 C   0  0  0  0  0  4           0  0  0
   -2.5289   -1.2260    0.4657 C   0  0  0  0  0  4           0  0  0
    1.8991    0.0000   -1.4344 C   0  0  1  0  0  4           0  0  0
    1.4264    0.0000    0.0000 C   0  0  0  0  0  4           0  0  0
    1.3733    1.1794   -2.2569 C   0  0  0  0  0  4           0  0  0
    1.3224    3.5922   -2.5429 C   0  0  0  0  0  4           0  0  0
   -3.7548   -0.7823   -1.6892 C   0  0  0  0  0  4           0  0  0
   -2.4453   -0.6250   -0.9237 C   0  0  0  0  0  4           0  0  0
    1.7924    4.9539   -2.0245 C   0  0  0  0  0  4           0  0  0
    1.2439    6.0900   -2.8741 C   0  0  0  0  0  4           0  0  0
  1  5  1  0     0  0
  1 19  1  0     0  0
  2 17  2  0     0  0
  3 18  1  0     0  0
  4 20  1  0     0  0
  4 21  1  0     0  0
  5  6  1  0     0  0
  5  8  2  0     0  0
  6  9  2  0     0  0
  6 17  1  0     0  0
  7 10  2  0     0  0
  7 11  1  0     0  0
  7 22  1  0     0  0
  8 12  1  0     0  0
  9 13  1  0     0  0
 10 14  1  0     0  0
 11 15  2  0     0  0
 12 13  2  0     0  0
 14 16  2  0     0  0
 15 16  1  0     0  0
 17 23  1  0     0  0
 18 19  1  0     0  0
 18 20  1  0     0  0
 21 24  1  0     0  0
 22 23  1  0     0  0
 24 25  1  0     0  0
M  END
> <standard_type>
pIC50

> <# Confs.>
25

> <canonical_smiles>
CCCNCC(COC1=CC=CC=C1C(CCC2=CC=CC=C2)=O)O

> <standard_relation>
=

> <Publication_ID>
nan

> <predicted_activity_value>
nan

> <actual_activity_value>
0.3565473235138126

> <Compound>
Propafenone

> <standard_units>
uM

> hash
16913817477797103820

$$$$
43
XXILIB    08252103503D 0   0.00000     0.00000

 25 26  0     1  0            999 V2000
   -0.0000    0.0000    0.0000 O   0  0  0  0  0  2           0  0  0
   -3.2497   -2.1842    0.7325 O   0  0  0  0  0  2           0  0  0
    1.4074   -0.0370   -2.3980 O   0  0  0  0  0  2           0  0  0
    1.9491   -2.9607   -0.1455 N   0  0  0  0  0  3           0  0  0
   -0.4644    0.0000    1.2906 C   0  0  0  0  0  4           0  0  0
   -1.7013   -0.6238    1.5372 C   0  0  0  0  0  4           0  0  0
   -3.7056   -0.1961   -3.0727 C   0  0  0  0  0  4           0  0  0
    0.2403    0.5520    2.3705 C   0  0  0  0  0  4           0  0  0
   -2.2015   -0.7058    2.8452 C   0  0  0  0  0  4           0  0  0
   -3.3301   -0.9863   -4.1674 C   0  0  0  0  0  4           0  0  0
   -4.0644    1.1410   -3.2909 C   0  0  0  0  0  4           0  0  0
   -0.2712    0.4777    3.6683 C   0  0  0  0  0  4           0  0  0
   -1.4879   -0.1529    3.9061 C   0  0  0  0  0  4           0  0  0
   -3.3038   -0.4461   -5.4543 C   0  0  0  0  0  4           0  0  0
   -4.0375    1.6792   -4.5787 C   0  0  0  0  0  4           0  0  0
   -3.6564    0.8865   -5.6598 C   0  0  0  0  0  4           0  0  0
   -2.5289   -1.2260    0.4657 C   0  0  0  0  0  4           0  0  0
    1.8991   -0.7172   -1.2422 C   0  0  1  0  0  4           0  0  0
    1.4264   -0.0000   -0.0000 C   0  0  0  0  0  4           0  0  0
    1.4814   -2.1889   -1.3012 C   0  0  0  0  0  4           0  0  0
    1.5441   -4.3618   -0.2144 C   0  0  0  0  0  4           0  0  0
   -3.7548   -0.7823   -1.6892 C   0  0  0  0  0  4           0  0  0
   -2.4453   -0.6250   -0.9237 C   0  0  0  0  0  4           0  0  0
    2.0258   -5.1802    0.9864 C   0  0  0  0  0  4           0  0  0
    1.5859   -6.6322    0.8801 C   0  0  0  0  0  4           0  0  0
  1  5  1  0     0  0
  1 19  1  0     0  0
  2 17  2  0     0  0
  3 18  1  0     0  0
  4 20  1  0     0  0
  4 21  1  0     0  0
  5  6  1  0     0  0
  5  8  2  0     0  0
  6  9  2  0     0  0
  6 17  1  0     0  0
  7 10  2  0     0  0
  7 11  1  0     0  0
  7 22  1  0     0  0
  8 12  1  0     0  0
  9 13  1  0     0  0
 10 14  1  0     0  0
 11 15  2  0     0  0
 12 13  2  0     0  0
 14 16  2  0     0  0
 15 16  1  0     0  0
 17 23  1  0     0  0
 18 19  1  0     0  0
 18 20  1  0     0  0
 21 24  1  0     0  0
 22 23  1  0     0  0
 24 25  1  0     0  0
M  END
> <standard_type>
pIC50

> <# Confs.>
25

> <canonical_smiles>
CCCNCC(COC1=CC=CC=C1C(CCC2=CC=CC=C2)=O)O

> <standard_relation>
=

> <Publication_ID>
nan

> <predicted_activity_value>
nan

> <actual_activity_value>
0.3565473235138126

> <Compound>
Propafenone

> <standard_units>
uM

> hash
16913817477797103820

$$$$
43
XXILIB    08252103503D 0   0.00000     0.00000

 25 26  0     1  0            999 V2000
   -0.0000    0.0000    0.0000 O   0  0  0  0  0  2           0  0  0
   -3.2497   -2.1842    0.7325 O   0  0  0  0  0  2           0  0  0
    1.4074   -0.0370   -2.3980 O   0  0  0  0  0  2           0  0  0
    2.0022   -2.8821   -2.4837 N   0  0  0  0  0  3           0  0  0
   -0.4644    0.0000    1.2906 C   0  0  0  0  0  4           0  0  0
   -1.7013   -0.6238    1.5372 C   0  0  0  0  0  4           0  0  0
   -3.7056   -0.1961   -3.0727 C   0  0  0  0  0  4           0  0  0
    0.2403    0.5520    2.3705 C   0  0  0  0  0  4           0  0  0
   -2.2015   -0.7058    2.8452 C   0  0  0  0  0  4           0  0  0
   -3.3301   -0.9863   -4.1674 C   0  0  0  0  0  4           0  0  0
   -4.0644    1.1410   -3.2909 C   0  0  0  0  0  4           0  0  0
   -0.2712    0.4777    3.6683 C   0  0  0  0  0  4           0  0  0
   -1.4879   -0.1529    3.9061 C   0  0  0  0  0  4           0  0  0
   -3.3038   -0.4461   -5.4543 C   0  0  0  0  0  4           0  0  0
   -4.0375    1.6792   -4.5787 C   0  0  0  0  0  4           0  0  0
   -3.6564    0.8865   -5.6598 C   0  0  0  0  0  4           0  0  0
   -2.5289   -1.2260    0.4657 C   0  0  0  0  0  4           0  0  0
    1.8991   -0.7172   -1.2422 C   0  0  1  0  0  4           0  0  0
    1.4264    0.0000    0.0000 C   0  0  0  0  0  4           0  0  0
    1.4814   -2.1889   -1.3012 C   0  0  0  0  0  4           0  0  0
    1.5966   -4.2840   -2.5274 C   0  0  0  0  0  4           0  0  0
   -3.7548   -0.7823   -1.6892 C   0  0  0  0  0  4           0  0  0
   -2.4453   -0.6250   -0.9237 C   0  0  0  0  0  4           0  0  0
    2.1335   -5.0207   -3.7574 C   0  0  0  0  0  4           0  0  0
    1.6915   -6.4759   -3.7688 C   0  0  0  0  0  4           0  0  0
  1  5  1  0     0  0
  1 19  1  0     0  0
  2 17  2  0     0  0
  3 18  1  0     0  0
  4 20  1  0     0  0
  4 21  1  0     0  0
  5  6  1  0     0  0
  5  8  2  0     0  0
  6  9  2  0     0  0
  6 17  1  0     0  0
  7 10  2  0     0  0
  7 11  1  0     0  0
  7 22  1  0     0  0
  8 12  1  0     0  0
  9 13  1  0     0  0
 10 14  1  0     0  0
 11 15  2  0     0  0
 12 13  2  0     0  0
 14 16  2  0     0  0
 15 16  1  0     0  0
 17 23  1  0     0  0
 18 19  1  0     0  0
 18 20  1  0     0  0
 21 24  1  0     0  0
 22 23  1  0     0  0
 24 25  1  0     0  0
M  END
> <standard_type>
pIC50

> <# Confs.>
25

> <canonical_smiles>
CCCNCC(COC1=CC=CC=C1C(CCC2=CC=CC=C2)=O)O

> <standard_relation>
=

> <Publication_ID>
nan

> <predicted_activity_value>
nan

> <actual_activity_value>
0.3565473235138126

> <Compound>
Propafenone

> <standard_units>
uM

> hash
16913817477797103820

$$$$
43
XXILIB    08252103503D 0   0.00000     0.00000

 25 26  0     1  0            999 V2000
    0.0000    0.0000    0.0000 O   0  0  0  0  0  2           0  0  0
   -3.7076    1.3412    0.5677 O   0  0  0  0  0  2           0  0  0
    1.4074   -1.1670   -2.0952 O   0  0  0  0  0  2           0  0  0
    4.1010   -1.0969   -1.0016 N   0  0  0  0  0  3           0  0  0
   -0.4644    0.0000    1.2906 C   0  0  0  0  0  4           0  0  0
   -1.7013    0.6238    1.5372 C   0  0  0  0  0  4           0  0  0
   -1.7356    3.8225   -2.3638 C   0  0  0  0  0  4           0  0  0
    0.2061   -0.6149    2.3582 C   0  0  0  0  0  4           0  0  0
   -2.2552    0.6068    2.8258 C   0  0  0  0  0  4           0  0  0
   -1.9958    3.4424   -3.6873 C   0  0  0  0  0  4           0  0  0
   -0.8111    4.8474   -2.1203 C   0  0  0  0  0  4           0  0  0
   -0.3462   -0.6157    3.6413 C   0  0  0  0  0  4           0  0  0
   -1.5759   -0.0093    3.8744 C   0  0  0  0  0  4           0  0  0
   -1.3360    4.0684   -4.7462 C   0  0  0  0  0  4           0  0  0
   -0.1524    5.4722   -3.1808 C   0  0  0  0  0  4           0  0  0
   -0.4139    5.0823   -4.4931 C   0  0  0  0  0  4           0  0  0
   -2.4826    1.3111    0.4824 C   0  0  0  0  0  4           0  0  0
    1.8991    0.0000   -1.4344 C   0  0  1  0  0  4           0  0  0
    1.4264   -0.0000    0.0000 C   0  0  0  0  0  4           0  0  0
    3.4215    0.0657   -1.5820 C   0  0  0  0  0  4           0  0  0
    5.5516   -1.0214   -1.1492 C   0  0  0  0  0  4           0  0  0
   -2.4611    3.1638   -1.2237 C   0  0  0  0  0  4           0  0  0
   -1.7250    1.9510   -0.6645 C   0  0  0  0  0  4           0  0  0
    6.2745   -2.2293   -0.5474 C   0  0  0  0  0  4           0  0  0
    5.9929   -2.3587    0.9416 C   0  0  0  0  0  4           0  0  0
  1  5  1  0     0  0
  1 19  1  0     0  0
  2 17  2  0     0  0
  3 18  1  0     0  0
  4 20  1  0     0  0
  4 21  1  0     0  0
  5  6  1  0     0  0
  5  8  2  0     0  0
  6  9  2  0     0  0
  6 17  1  0     0  0
  7 10  2  0     0  0
  7 11  1  0     0  0
  7 22  1  0     0  0
  8 12  1  0     0  0
  9 13  1  0     0  0
 10 14  1  0     0  0
 11 15  2  0     0  0
 12 13  2  0     0  0
 14 16  2  0     0  0
 15 16  1  0     0  0
 17 23  1  0     0  0
 18 19  1  0     0  0
 18 20  1  0     0  0
 21 24  1  0     0  0
 22 23  1  0     0  0
 24 25  1  0     0  0
M  END
> <standard_type>
pIC50

> <# Confs.>
25

> <canonical_smiles>
CCCNCC(COC1=CC=CC=C1C(CCC2=CC=CC=C2)=O)O

> <standard_relation>
=

> <Publication_ID>
nan

> <predicted_activity_value>
nan

> <actual_activity_value>
0.3565473235138126

> <Compound>
Propafenone

> <standard_units>
uM

> hash
16913817477797103820

$$$$
43
XXILIB    08252103503D 0   0.00000     0.00000

 25 26  0     1  0            999 V2000
    0.0000    0.0000    0.0000 O   0  0  0  0  0  2           0  0  0
   -3.9231   -0.4867    0.4902 O   0  0  0  0  0  2           0  0  0
    1.4074   -1.1670   -2.0952 O   0  0  0  0  0  2           0  0  0
    4.1010   -1.0969   -1.0016 N   0  0  0  0  0  3           0  0  0
   -0.4644   -0.0000    1.2906 C   0  0  0  0  0  4           0  0  0
   -1.8585    0.0000    1.4806 C   0  0  0  0  0  4           0  0  0
   -3.2272    2.0937   -2.9005 C   0  0  0  0  0  4           0  0  0
    0.3703   -0.0363    2.4173 C   0  0  0  0  0  4           0  0  0
   -2.3938   -0.0571    2.7760 C   0  0  0  0  0  4           0  0  0
   -3.2213    1.4180   -4.1282 C   0  0  0  0  0  4           0  0  0
   -2.9050    3.4574   -2.8737 C   0  0  0  0  0  4           0  0  0
   -0.1709   -0.0796    3.7044 C   0  0  0  0  0  4           0  0  0
   -1.5500   -0.0936    3.8837 C   0  0  0  0  0  4           0  0  0
   -2.8890    2.0914   -5.3050 C   0  0  0  0  0  4           0  0  0
   -2.5731    4.1289   -4.0518 C   0  0  0  0  0  4           0  0  0
   -2.5641    3.4461   -5.2667 C   0  0  0  0  0  4           0  0  0
   -2.8256    0.0491    0.3590 C   0  0  0  0  0  4           0  0  0
    1.8991    0.0000   -1.4344 C   0  0  1  0  0  4           0  0  0
    1.4264   -0.0000    0.0000 C   0  0  0  0  0  4           0  0  0
    3.4215    0.0657   -1.5820 C   0  0  0  0  0  4           0  0  0
    5.5516   -1.0214   -1.1492 C   0  0  0  0  0  4           0  0  0
   -3.6054    1.3750   -1.6354 C   0  0  0  0  0  4           0  0  0
   -2.4099    0.7655   -0.9109 C   0  0  0  0  0  4           0  0  0
    6.2745   -2.2293   -0.5474 C   0  0  0  0  0  4           0  0  0
    5.9929   -2.3587    0.9416 C   0  0  0  0  0  4           0  0  0
  1  5  1  0     0  0
  1 19  1  0     0  0
  2 17  2  0     0  0
  3 18  1  0     0  0
  4 20  1  0     0  0
  4 21  1  0     0  0
  5  6  1  0     0  0
  5  8  2  0     0  0
  6  9  2  0     0  0
  6 17  1  0     0  0
  7 10  2  0     0  0
  7 11  1  0     0  0
  7 22  1  0     0  0
  8 12  1  0     0  0
  9 13  1  0     0  0
 10 14  1  0     0  0
 11 15  2  0     0  0
 12 13  2  0     0  0
 14 16  2  0     0  0
 15 16  1  0     0  0
 17 23  1  0     0  0
 18 19  1  0     0  0
 18 20  1  0     0  0
 21 24  1  0     0  0
 22 23  1  0     0  0
 24 25  1  0     0  0
M  END
> <standard_type>
pIC50

> <# Confs.>
25

> <canonical_smiles>
CCCNCC(COC1=CC=CC=C1C(CCC2=CC=CC=C2)=O)O

> <standard_relation>
=

> <Publication_ID>
nan

> <predicted_activity_value>
nan

> <actual_activity_value>
0.3565473235138126

> <Compound>
Propafenone

> <standard_units>
uM

> hash
16913817477797103820

$$$$
43
XXILIB    08252103503D 0   0.00000     0.00000

 25 26  0     1  0            999 V2000
    0.0000    0.0000    0.0000 O   0  0  0  0  0  2           0  0  0
   -3.9231   -0.4867    0.4902 O   0  0  0  0  0  2           0  0  0
    1.4074    1.1670   -2.0952 O   0  0  0  0  0  2           0  0  0
    1.9491   -2.4913   -1.6063 N   0  0  0  0  0  3           0  0  0
   -0.4644   -0.0000    1.2906 C   0  0  0  0  0  4           0  0  0
   -1.8585    0.0000    1.4806 C   0  0  0  0  0  4           0  0  0
   -3.2272    2.0937   -2.9005 C   0  0  0  0  0  4           0  0  0
    0.3703   -0.0363    2.4173 C   0  0  0  0  0  4           0  0  0
   -2.3938   -0.0571    2.7760 C   0  0  0  0  0  4           0  0  0
   -3.2213    1.4180   -4.1282 C   0  0  0  0  0  4           0  0  0
   -2.9050    3.4574   -2.8737 C   0  0  0  0  0  4           0  0  0
   -0.1709   -0.0796    3.7044 C   0  0  0  0  0  4           0  0  0
   -1.5500   -0.0936    3.8837 C   0  0  0  0  0  4           0  0  0
   -2.8890    2.0914   -5.3050 C   0  0  0  0  0  4           0  0  0
   -2.5731    4.1289   -4.0518 C   0  0  0  0  0  4           0  0  0
   -2.5641    3.4461   -5.2667 C   0  0  0  0  0  4           0  0  0
   -2.8256    0.0491    0.3590 C   0  0  0  0  0  4           0  0  0
    1.8991    0.0000   -1.4344 C   0  0  1  0  0  4           0  0  0
    1.4264   -0.0000   -0.0000 C   0  0  0  0  0  4           0  0  0
    1.4814   -1.2451   -2.2213 C   0  0  0  0  0  4           0  0  0
    1.5441   -3.6702   -2.3666 C   0  0  0  0  0  4           0  0  0
   -3.6054    1.3750   -1.6354 C   0  0  0  0  0  4           0  0  0
   -2.4099    0.7655   -0.9109 C   0  0  0  0  0  4           0  0  0
    2.0258   -4.9794   -1.7358 C   0  0  0  0  0  4           0  0  0
    1.5859   -6.1837   -2.5539 C   0  0  0  0  0  4           0  0  0
  1  5  1  0     0  0
  1 19  1  0     0  0
  2 17  2  0     0  0
  3 18  1  0     0  0
  4 20  1  0     0  0
  4 21  1  0     0  0
  5  6  1  0     0  0
  5  8  2  0     0  0
  6  9  2  0     0  0
  6 17  1  0     0  0
  7 10  2  0     0  0
  7 11  1  0     0  0
  7 22  1  0     0  0
  8 12  1  0     0  0
  9 13  1  0     0  0
 10 14  1  0     0  0
 11 15  2  0     0  0
 12 13  2  0     0  0
 14 16  2  0     0  0
 15 16  1  0     0  0
 17 23  1  0     0  0
 18 19  1  0     0  0
 18 20  1  0     0  0
 21 24  1  0     0  0
 22 23  1  0     0  0
 24 25  1  0     0  0
M  END
> <standard_type>
pIC50

> <# Confs.>
25

> <canonical_smiles>
CCCNCC(COC1=CC=CC=C1C(CCC2=CC=CC=C2)=O)O

> <standard_relation>
=

> <Publication_ID>
nan

> <predicted_activity_value>
nan

> <actual_activity_value>
0.3565473235138126

> <Compound>
Propafenone

> <standard_units>
uM

> hash
16913817477797103820

$$$$
43
XXILIB    08252103503D 0   0.00000     0.00000

 25 26  0     1  0            999 V2000
   -0.0000    0.0000    0.0000 O   0  0  0  0  0  2           0  0  0
   -3.2497   -2.1842    0.7325 O   0  0  0  0  0  2           0  0  0
    1.4074    1.1670   -2.0952 O   0  0  0  0  0  2           0  0  0
    1.9491   -2.4913   -1.6063 N   0  0  0  0  0  3           0  0  0
   -0.4644    0.0000    1.2906 C   0  0  0  0  0  4           0  0  0
   -1.7013   -0.6238    1.5372 C   0  0  0  0  0  4           0  0  0
   -3.7056   -0.1961   -3.0727 C   0  0  0  0  0  4           0  0  0
    0.2403    0.5520    2.3705 C   0  0  0  0  0  4           0  0  0
   -2.2015   -0.7058    2.8452 C   0  0  0  0  0  4           0  0  0
   -3.3301   -0.9863   -4.1674 C   0  0  0  0  0  4           0  0  0
   -4.0644    1.1410   -3.2909 C   0  0  0  0  0  4           0  0  0
   -0.2712    0.4777    3.6683 C   0  0  0  0  0  4           0  0  0
   -1.4879   -0.1529    3.9061 C   0  0  0  0  0  4           0  0  0
   -3.3038   -0.4461   -5.4543 C   0  0  0  0  0  4           0  0  0
   -4.0375    1.6792   -4.5787 C   0  0  0  0  0  4           0  0  0
   -3.6564    0.8865   -5.6598 C   0  0  0  0  0  4           0  0  0
   -2.5289   -1.2260    0.4657 C   0  0  0  0  0  4           0  0  0
    1.8991    0.0000   -1.4344 C   0  0  1  0  0  4           0  0  0
    1.4264   -0.0000   -0.0000 C   0  0  0  0  0  4           0  0  0
    1.4814   -1.2451   -2.2213 C   0  0  0  0  0  4           0  0  0
    1.5441   -3.6702   -2.3666 C   0  0  0  0  0  4           0  0  0
   -3.7548   -0.7823   -1.6892 C   0  0  0  0  0  4           0  0  0
   -2.4453   -0.6250   -0.9237 C   0  0  0  0  0  4           0  0  0
    2.0258   -4.9794   -1.7358 C   0  0  0  0  0  4           0  0  0
    1.5859   -6.1837   -2.5539 C   0  0  0  0  0  4           0  0  0
  1  5  1  0     0  0
  1 19  1  0     0  0
  2 17  2  0     0  0
  3 18  1  0     0  0
  4 20  1  0     0  0
  4 21  1  0     0  0
  5  6  1  0     0  0
  5  8  2  0     0  0
  6  9  2  0     0  0
  6 17  1  0     0  0
  7 10  2  0     0  0
  7 11  1  0     0  0
  7 22  1  0     0  0
  8 12  1  0     0  0
  9 13  1  0     0  0
 10 14  1  0     0  0
 11 15  2  0     0  0
 12 13  2  0     0  0
 14 16  2  0     0  0
 15 16  1  0     0  0
 17 23  1  0     0  0
 18 19  1  0     0  0
 18 20  1  0     0  0
 21 24  1  0     0  0
 22 23  1  0     0  0
 24 25  1  0     0  0
M  END
> <standard_type>
pIC50

> <# Confs.>
25

> <canonical_smiles>
CCCNCC(COC1=CC=CC=C1C(CCC2=CC=CC=C2)=O)O

> <standard_relation>
=

> <Publication_ID>
nan

> <predicted_activity_value>
nan

> <actual_activity_value>
0.3565473235138126

> <Compound>
Propafenone

> <standard_units>
uM

> hash
16913817477797103820

$$$$
43
XXILIB    08252103503D 0   0.00000     0.00000

 25 26  0     1  0            999 V2000
    0.0000    0.0000    0.0000 O   0  0  0  0  0  2           0  0  0
   -3.9231   -0.4867    0.4902 O   0  0  0  0  0  2           0  0  0
    3.3272   -0.0000   -1.4626 O   0  0  0  0  0  2           0  0  0
    1.7931    1.1270   -3.6609 N   0  0  0  0  0  3           0  0  0
   -0.4644   -0.0000    1.2906 C   0  0  0  0  0  4           0  0  0
   -1.8585    0.0000    1.4806 C   0  0  0  0  0  4           0  0  0
   -3.2272    2.0937   -2.9005 C   0  0  0  0  0  4           0  0  0
    0.3703   -0.0363    2.4173 C   0  0  0  0  0  4           0  0  0
   -2.3938   -0.0571    2.7760 C   0  0  0  0  0  4           0  0  0
   -3.2213    1.4180   -4.1282 C   0  0  0  0  0  4           0  0  0
   -2.9050    3.4574   -2.8737 C   0  0  0  0  0  4           0  0  0
   -0.1709   -0.0796    3.7044 C   0  0  0  0  0  4           0  0  0
   -1.5500   -0.0936    3.8837 C   0  0  0  0  0  4           0  0  0
   -2.8890    2.0914   -5.3050 C   0  0  0  0  0  4           0  0  0
   -2.5731    4.1289   -4.0518 C   0  0  0  0  0  4           0  0  0
   -2.5641    3.4461   -5.2667 C   0  0  0  0  0  4           0  0  0
   -2.8256    0.0491    0.3590 C   0  0  0  0  0  4           0  0  0
    1.8991    0.0000   -1.4344 C   0  0  1  0  0  4           0  0  0
    1.4264   -0.0000    0.0000 C   0  0  0  0  0  4           0  0  0
    1.3733    1.1794   -2.2569 C   0  0  0  0  0  4           0  0  0
    1.2851    2.2570   -4.4334 C   0  0  0  0  0  4           0  0  0
   -3.6054    1.3750   -1.6354 C   0  0  0  0  0  4           0  0  0
   -2.4099    0.7655   -0.9109 C   0  0  0  0  0  4           0  0  0
    1.7158    2.2154   -5.9020 C   0  0  0  0  0  4           0  0  0
    1.1689    3.4062   -6.6740 C   0  0  0  0  0  4           0  0  0
  1  5  1  0     0  0
  1 19  1  0     0  0
  2 17  2  0     0  0
  3 18  1  0     0  0
  4 20  1  0     0  0
  4 21  1  0     0  0
  5  6  1  0     0  0
  5  8  2  0     0  0
  6  9  2  0     0  0
  6 17  1  0     0  0
  7 10  2  0     0  0
  7 11  1  0     0  0
  7 22  1  0     0  0
  8 12  1  0     0  0
  9 13  1  0     0  0
 10 14  1  0     0  0
 11 15  2  0     0  0
 12 13  2  0     0  0
 14 16  2  0     0  0
 15 16  1  0     0  0
 17 23  1  0     0  0
 18 19  1  0     0  0
 18 20  1  0     0  0
 21 24  1  0     0  0
 22 23  1  0     0  0
 24 25  1  0     0  0
M  END
> <standard_type>
pIC50

> <# Confs.>
25

> <canonical_smiles>
CCCNCC(COC1=CC=CC=C1C(CCC2=CC=CC=C2)=O)O

> <standard_relation>
=

> <Publication_ID>
nan

> <predicted_activity_value>
nan

> <actual_activity_value>
0.3565473235138126

> <Compound>
Propafenone

> <standard_units>
uM

> hash
16913817477797103820

$$$$
43
XXILIB    08252103503D 0   0.00000     0.00000

 25 26  0     1  0            999 V2000
   -0.0000    0.0000    0.0000 O   0  0  0  0  0  2           0  0  0
   -3.2497   -2.1842    0.7325 O   0  0  0  0  0  2           0  0  0
    3.3272   -0.7313   -1.2666 O   0  0  0  0  0  2           0  0  0
    1.7931   -0.8544   -3.7340 N   0  0  0  0  0  3           0  0  0
   -0.4644    0.0000    1.2906 C   0  0  0  0  0  4           0  0  0
   -1.7013   -0.6238    1.5372 C   0  0  0  0  0  4           0  0  0
   -3.7056   -0.1961   -3.0727 C   0  0  0  0  0  4           0  0  0
    0.2403    0.5520    2.3705 C   0  0  0  0  0  4           0  0  0
   -2.2015   -0.7058    2.8452 C   0  0  0  0  0  4           0  0  0
   -3.3301   -0.9863   -4.1674 C   0  0  0  0  0  4           0  0  0
   -4.0644    1.1410   -3.2909 C   0  0  0  0  0  4           0  0  0
   -0.2712    0.4777    3.6683 C   0  0  0  0  0  4           0  0  0
   -1.4879   -0.1529    3.9061 C   0  0  0  0  0  4           0  0  0
   -3.3038   -0.4461   -5.4543 C   0  0  0  0  0  4           0  0  0
   -4.0375    1.6792   -4.5787 C   0  0  0  0  0  4           0  0  0
   -3.6564    0.8865   -5.6598 C   0  0  0  0  0  4           0  0  0
   -2.5289   -1.2260    0.4657 C   0  0  0  0  0  4           0  0  0
    1.8991   -0.7172   -1.2422 C   0  0  1  0  0  4           0  0  0
    1.4264    0.0000    0.0000 C   0  0  0  0  0  4           0  0  0
    1.3733   -0.1071   -2.5442 C   0  0  0  0  0  4           0  0  0
    1.2851   -0.2621   -4.9680 C   0  0  0  0  0  4           0  0  0
   -3.7548   -0.7823   -1.6892 C   0  0  0  0  0  4           0  0  0
   -2.4453   -0.6250   -0.9237 C   0  0  0  0  0  4           0  0  0
    1.7158   -1.0324   -6.2190 C   0  0  0  0  0  4           0  0  0
    1.1689   -0.3871   -7.4830 C   0  0  0  0  0  4           0  0  0
  1  5  1  0     0  0
  1 19  1  0     0  0
  2 17  2  0     0  0
  3 18  1  0     0  0
  4 20  1  0     0  0
  4 21  1  0     0  0
  5  6  1  0     0  0
  5  8  2  0     0  0
  6  9  2  0     0  0
  6 17  1  0     0  0
  7 10  2  0     0  0
  7 11  1  0     0  0
  7 22  1  0     0  0
  8 12  1  0     0  0
  9 13  1  0     0  0
 10 14  1  0     0  0
 11 15  2  0     0  0
 12 13  2  0     0  0
 14 16  2  0     0  0
 15 16  1  0     0  0
 17 23  1  0     0  0
 18 19  1  0     0  0
 18 20  1  0     0  0
 21 24  1  0     0  0
 22 23  1  0     0  0
 24 25  1  0     0  0
M  END
> <standard_type>
pIC50

> <# Confs.>
25

> <canonical_smiles>
CCCNCC(COC1=CC=CC=C1C(CCC2=CC=CC=C2)=O)O

> <standard_relation>
=

> <Publication_ID>
nan

> <predicted_activity_value>
nan

> <actual_activity_value>
0.3565473235138126

> <Compound>
Propafenone

> <standard_units>
uM

> hash
16913817477797103820

$$$$
43
XXILIB    08252103503D 0   0.00000     0.00000

 25 26  0     1  0            999 V2000
    0.0000    0.0000    0.0000 O   0  0  0  0  0  2           0  0  0
   -3.9231   -0.4867    0.4902 O   0  0  0  0  0  2           0  0  0
    1.4074    1.1670   -2.0952 O   0  0  0  0  0  2           0  0  0
    2.0022   -1.2542   -3.5920 N   0  0  0  0  0  3           0  0  0
   -0.4644   -0.0000    1.2906 C   0  0  0  0  0  4           0  0  0
   -1.8585    0.0000    1.4806 C   0  0  0  0  0  4           0  0  0
   -3.2272    2.0937   -2.9005 C   0  0  0  0  0  4           0  0  0
    0.3703   -0.0363    2.4173 C   0  0  0  0  0  4           0  0  0
   -2.3938   -0.0571    2.7760 C   0  0  0  0  0  4           0  0  0
   -3.2213    1.4180   -4.1282 C   0  0  0  0  0  4           0  0  0
   -2.9050    3.4574   -2.8737 C   0  0  0  0  0  4           0  0  0
   -0.1709   -0.0796    3.7044 C   0  0  0  0  0  4           0  0  0
   -1.5500   -0.0936    3.8837 C   0  0  0  0  0  4           0  0  0
   -2.8890    2.0914   -5.3050 C   0  0  0  0  0  4           0  0  0
   -2.5731    4.1289   -4.0518 C   0  0  0  0  0  4           0  0  0
   -2.5641    3.4461   -5.2667 C   0  0  0  0  0  4           0  0  0
   -2.8256    0.0491    0.3590 C   0  0  0  0  0  4           0  0  0
    1.8991    0.0000   -1.4344 C   0  0  1  0  0  4           0  0  0
    1.4264   -0.0000    0.0000 C   0  0  0  0  0  4           0  0  0
    1.4814   -1.2451   -2.2213 C   0  0  0  0  0  4           0  0  0
    1.5966   -2.4464   -4.3308 C   0  0  0  0  0  4           0  0  0
   -3.6054    1.3750   -1.6354 C   0  0  0  0  0  4           0  0  0
   -2.4099    0.7655   -0.9109 C   0  0  0  0  0  4           0  0  0
    2.1335   -2.4694   -5.7643 C   0  0  0  0  0  4           0  0  0
    1.6915   -3.7239   -6.5018 C   0  0  0  0  0  4           0  0  0
  1  5  1  0     0  0
  1 19  1  0     0  0
  2 17  2  0     0  0
  3 18  1  0     0  0
  4 20  1  0     0  0
  4 21  1  0     0  0
  5  6  1  0     0  0
  5  8  2  0     0  0
  6  9  2  0     0  0
  6 17  1  0     0  0
  7 10  2  0     0  0
  7 11  1  0     0  0
  7 22  1  0     0  0
  8 12  1  0     0  0
  9 13  1  0     0  0
 10 14  1  0     0  0
 11 15  2  0     0  0
 12 13  2  0     0  0
 14 16  2  0     0  0
 15 16  1  0     0  0
 17 23  1  0     0  0
 18 19  1  0     0  0
 18 20  1  0     0  0
 21 24  1  0     0  0
 22 23  1  0     0  0
 24 25  1  0     0  0
M  END
> <standard_type>
pIC50

> <# Confs.>
25

> <canonical_smiles>
CCCNCC(COC1=CC=CC=C1C(CCC2=CC=CC=C2)=O)O

> <standard_relation>
=

> <Publication_ID>
nan

> <predicted_activity_value>
nan

> <actual_activity_value>
0.3565473235138126

> <Compound>
Propafenone

> <standard_units>
uM

> hash
16913817477797103820

$$$$
43
XXILIB    08252103503D 0   0.00000     0.00000

 25 26  0     1  0            999 V2000
   -0.0000    0.0000    0.0000 O   0  0  0  0  0  2           0  0  0
   -3.2497   -2.1842    0.7325 O   0  0  0  0  0  2           0  0  0
    1.4074    1.1670   -2.0952 O   0  0  0  0  0  2           0  0  0
    2.0022   -1.2542   -3.5920 N   0  0  0  0  0  3           0  0  0
   -0.4644    0.0000    1.2906 C   0  0  0  0  0  4           0  0  0
   -1.7013   -0.6238    1.5372 C   0  0  0  0  0  4           0  0  0
   -3.7056   -0.1961   -3.0727 C   0  0  0  0  0  4           0  0  0
    0.2403    0.5520    2.3705 C   0  0  0  0  0  4           0  0  0
   -2.2015   -0.7058    2.8452 C   0  0  0  0  0  4           0  0  0
   -3.3301   -0.9863   -4.1674 C   0  0  0  0  0  4           0  0  0
   -4.0644    1.1410   -3.2909 C   0  0  0  0  0  4           0  0  0
   -0.2712    0.4777    3.6683 C   0  0  0  0  0  4           0  0  0
   -1.4879   -0.1529    3.9061 C   0  0  0  0  0  4           0  0  0
   -3.3038   -0.4461   -5.4543 C   0  0  0  0  0  4           0  0  0
   -4.0375    1.6792   -4.5787 C   0  0  0  0  0  4           0  0  0
   -3.6564    0.8865   -5.6598 C   0  0  0  0  0  4           0  0  0
   -2.5289   -1.2260    0.4657 C   0  0  0  0  0  4           0  0  0
    1.8991    0.0000   -1.4344 C   0  0  1  0  0  4           0  0  0
    1.4264   -0.0000    0.0000 C   0  0  0  0  0  4           0  0  0
    1.4814   -1.2451   -2.2213 C   0  0  0  0  0  4           0  0  0
    1.5966   -2.4464   -4.3308 C   0  0  0  0  0  4           0  0  0
   -3.7548   -0.7823   -1.6892 C   0  0  0  0  0  4           0  0  0
   -2.4453   -0.6250   -0.9237 C   0  0  0  0  0  4           0  0  0
    2.1335   -2.4694   -5.7643 C   0  0  0  0  0  4           0  0  0
    1.6385   -1.2721   -6.5610 C   0  0  0  0  0  4           0  0  0
  1  5  1  0     0  0
  1 19  1  0     0  0
  2 17  2  0     0  0
  3 18  1  0     0  0
  4 20  1  0     0  0
  4 21  1  0     0  0
  5  6  1  0     0  0
  5  8  2  0     0  0
  6  9  2  0     0  0
  6 17  1  0     0  0
  7 10  2  0     0  0
  7 11  1  0     0  0
  7 22  1  0     0  0
  8 12  1  0     0  0
  9 13  1  0     0  0
 10 14  1  0     0  0
 11 15  2  0     0  0
 12 13  2  0     0  0
 14 16  2  0     0  0
 15 16  1  0     0  0
 17 23  1  0     0  0
 18 19  1  0     0  0
 18 20  1  0     0  0
 21 24  1  0     0  0
 22 23  1  0     0  0
 24 25  1  0     0  0
M  END
> <standard_type>
pIC50

> <# Confs.>
25

> <canonical_smiles>
CCCNCC(COC1=CC=CC=C1C(CCC2=CC=CC=C2)=O)O

> <standard_relation>
=

> <Publication_ID>
nan

> <predicted_activity_value>
nan

> <actual_activity_value>
0.3565473235138126

> <Compound>
Propafenone

> <standard_units>
uM

> hash
16913817477797103820

$$$$
43
XXILIB    08252103503D 0   0.00000     0.00000

 25 26  0     1  0            999 V2000
   -0.0000    0.0000    0.0000 O   0  0  0  0  0  2           0  0  0
   -3.2497   -2.1842    0.7325 O   0  0  0  0  0  2           0  0  0
    1.4074   -0.0370   -2.3980 O   0  0  0  0  0  2           0  0  0
    1.9491   -2.9607   -0.1455 N   0  0  0  0  0  3           0  0  0
   -0.4644    0.0000    1.2906 C   0  0  0  0  0  4           0  0  0
   -1.7013   -0.6238    1.5372 C   0  0  0  0  0  4           0  0  0
   -3.7056   -0.1961   -3.0727 C   0  0  0  0  0  4           0  0  0
    0.2403    0.5520    2.3705 C   0  0  0  0  0  4           0  0  0
   -2.2015   -0.7058    2.8452 C   0  0  0  0  0  4           0  0  0
   -3.3301   -0.9863   -4.1674 C   0  0  0  0  0  4           0  0  0
   -4.0644    1.1410   -3.2909 C   0  0  0  0  0  4           0  0  0
   -0.2712    0.4777    3.6683 C   0  0  0  0  0  4           0  0  0
   -1.4879   -0.1529    3.9061 C   0  0  0  0  0  4           0  0  0
   -3.3038   -0.4461   -5.4543 C   0  0  0  0  0  4           0  0  0
   -4.0375    1.6792   -4.5787 C   0  0  0  0  0  4           0  0  0
   -3.6564    0.8865   -5.6598 C   0  0  0  0  0  4           0  0  0
   -2.5289   -1.2260    0.4657 C   0  0  0  0  0  4           0  0  0
    1.8991   -0.7172   -1.2422 C   0  0  1  0  0  4           0  0  0
    1.4264    0.0000    0.0000 C   0  0  0  0  0  4           0  0  0
    1.4814   -2.1889   -1.3012 C   0  0  0  0  0  4           0  0  0
    3.4044   -2.9549   -0.0278 C   0  0  0  0  0  4           0  0  0
   -3.7548   -0.7823   -1.6892 C   0  0  0  0  0  4           0  0  0
   -2.4453   -0.6250   -0.9237 C   0  0  0  0  0  4           0  0  0
    3.9073   -3.7573    1.1752 C   0  0  0  0  0  4           0  0  0
    3.3610   -3.2002    2.4807 C   0  0  0  0  0  4           0  0  0
  1  5  1  0     0  0
  1 19  1  0     0  0
  2 17  2  0     0  0
  3 18  1  0     0  0
  4 20  1  0     0  0
  4 21  1  0     0  0
  5  6  1  0     0  0
  5  8  2  0     0  0
  6  9  2  0     0  0
  6 17  1  0     0  0
  7 10  2  0     0  0
  7 11  1  0     0  0
  7 22  1  0     0  0
  8 12  1  0     0  0
  9 13  1  0     0  0
 10 14  1  0     0  0
 11 15  2  0     0  0
 12 13  2  0     0  0
 14 16  2  0     0  0
 15 16  1  0     0  0
 17 23  1  0     0  0
 18 19  1  0     0  0
 18 20  1  0     0  0
 21 24  1  0     0  0
 22 23  1  0     0  0
 24 25  1  0     0  0
M  END
> <standard_type>
pIC50

> <# Confs.>
25

> <canonical_smiles>
CCCNCC(COC1=CC=CC=C1C(CCC2=CC=CC=C2)=O)O

> <standard_relation>
=

> <Publication_ID>
nan

> <predicted_activity_value>
nan

> <actual_activity_value>
0.3565473235138126

> <Compound>
Propafenone

> <standard_units>
uM

> hash
16913817477797103820

$$$$
43
XXILIB    08252103503D 0   0.00000     0.00000

 25 26  0     1  0            999 V2000
   -0.0000    0.0000    0.0000 O   0  0  0  0  0  2           0  0  0
   -3.2497   -2.1842    0.7325 O   0  0  0  0  0  2           0  0  0
    1.4074   -1.1670   -2.0952 O   0  0  0  0  0  2           0  0  0
    4.1010   -1.0969   -1.0016 N   0  0  0  0  0  3           0  0  0
   -0.4644    0.0000    1.2906 C   0  0  0  0  0  4           0  0  0
   -1.7013   -0.6238    1.5372 C   0  0  0  0  0  4           0  0  0
   -3.7056   -0.1961   -3.0727 C   0  0  0  0  0  4           0  0  0
    0.2403    0.5520    2.3705 C   0  0  0  0  0  4           0  0  0
   -2.2015   -0.7058    2.8452 C   0  0  0  0  0  4           0  0  0
   -3.3301   -0.9863   -4.1674 C   0  0  0  0  0  4           0  0  0
   -4.0644    1.1410   -3.2909 C   0  0  0  0  0  4           0  0  0
   -0.2712    0.4777    3.6683 C   0  0  0  0  0  4           0  0  0
   -1.4879   -0.1529    3.9061 C   0  0  0  0  0  4           0  0  0
   -3.3038   -0.4461   -5.4543 C   0  0  0  0  0  4           0  0  0
   -4.0375    1.6792   -4.5787 C   0  0  0  0  0  4           0  0  0
   -3.6564    0.8865   -5.6598 C   0  0  0  0  0  4           0  0  0
   -2.5289   -1.2260    0.4657 C   0  0  0  0  0  4           0  0  0
    1.8991    0.0000   -1.4344 C   0  0  1  0  0  4           0  0  0
    1.4264   -0.0000    0.0000 C   0  0  0  0  0  4           0  0  0
    3.4215    0.0657   -1.5820 C   0  0  0  0  0  4           0  0  0
    5.5516   -1.0214   -1.1492 C   0  0  0  0  0  4           0  0  0
   -3.7548   -0.7823   -1.6892 C   0  0  0  0  0  4           0  0  0
   -2.4453   -0.6250   -0.9237 C   0  0  0  0  0  4           0  0  0
    6.2745   -2.2293   -0.5474 C   0  0  0  0  0  4           0  0  0
    5.8346   -3.5255   -1.2104 C   0  0  0  0  0  4           0  0  0
  1  5  1  0     0  0
  1 19  1  0     0  0
  2 17  2  0     0  0
  3 18  1  0     0  0
  4 20  1  0     0  0
  4 21  1  0     0  0
  5  6  1  0     0  0
  5  8  2  0     0  0
  6  9  2  0     0  0
  6 17  1  0     0  0
  7 10  2  0     0  0
  7 11  1  0     0  0
  7 22  1  0     0  0
  8 12  1  0     0  0
  9 13  1  0     0  0
 10 14  1  0     0  0
 11 15  2  0     0  0
 12 13  2  0     0  0
 14 16  2  0     0  0
 15 16  1  0     0  0
 17 23  1  0     0  0
 18 19  1  0     0  0
 18 20  1  0     0  0
 21 24  1  0     0  0
 22 23  1  0     0  0
 24 25  1  0     0  0
M  END
> <standard_type>
pIC50

> <# Confs.>
25

> <canonical_smiles>
CCCNCC(COC1=CC=CC=C1C(CCC2=CC=CC=C2)=O)O

> <standard_relation>
=

> <Publication_ID>
nan

> <predicted_activity_value>
nan

> <actual_activity_value>
0.3565473235138126

> <Compound>
Propafenone

> <standard_units>
uM

> hash
16913817477797103820

$$$$
43
XXILIB    08252103503D 0   0.00000     0.00000

 25 26  0     1  0            999 V2000
    0.0000    0.0000   -0.0000 O   0  0  0  0  0  2           0  0  0
   -1.8895    1.8370   -0.4560 O   0  0  0  0  0  2           0  0  0
    1.4074    2.0583   -1.2310 O   0  0  0  0  0  2           0  0  0
    1.9491   -1.3544   -2.6368 N   0  0  0  0  0  3           0  0  0
   -0.4644   -0.0000    1.2906 C   0  0  0  0  0  4           0  0  0
   -1.7013    0.6238    1.5372 C   0  0  0  0  0  4           0  0  0
   -6.1796    1.3950   -0.6538 C   0  0  0  0  0  4           0  0  0
    0.2061   -0.6149    2.3582 C   0  0  0  0  0  4           0  0  0
   -2.2552    0.6068    2.8258 C   0  0  0  0  0  4           0  0  0
   -6.8717    2.6130   -0.6160 C   0  0  0  0  0  4           0  0  0
   -6.9086    0.1982   -0.6334 C   0  0  0  0  0  4           0  0  0
   -0.3462   -0.6157    3.6413 C   0  0  0  0  0  4           0  0  0
   -1.5759   -0.0093    3.8744 C   0  0  0  0  0  4           0  0  0
   -8.2659    2.6329   -0.5484 C   0  0  0  0  0  4           0  0  0
   -8.3028    0.2205   -0.5659 C   0  0  0  0  0  4           0  0  0
   -8.9811    1.4371   -0.5223 C   0  0  0  0  0  4           0  0  0
   -2.4826    1.3111    0.4824 C   0  0  0  0  0  4           0  0  0
    1.8991    0.7172   -1.2422 C   0  0  1  0  0  4           0  0  0
    1.4264   -0.0000   -0.0000 C   0  0  0  0  0  4           0  0  0
    1.4814    0.0324   -2.5463 C   0  0  0  0  0  4           0  0  0
    1.5441   -1.9952   -3.8846 C   0  0  0  0  0  4           0  0  0
   -4.6794    1.3721   -0.7481 C   0  0  0  0  0  4           0  0  0
   -3.9929    1.3335    0.6131 C   0  0  0  0  0  4           0  0  0
    2.0258   -3.4444   -3.9930 C   0  0  0  0  0  4           0  0  0
    1.5859   -4.0783   -5.3036 C   0  0  0  0  0  4           0  0  0
  1  5  1  0     0  0
  1 19  1  0     0  0
  2 17  2  0     0  0
  3 18  1  0     0  0
  4 20  1  0     0  0
  4 21  1  0     0  0
  5  6  1  0     0  0
  5  8  2  0     0  0
  6  9  2  0     0  0
  6 17  1  0     0  0
  7 10  2  0     0  0
  7 11  1  0     0  0
  7 22  1  0     0  0
  8 12  1  0     0  0
  9 13  1  0     0  0
 10 14  1  0     0  0
 11 15  2  0     0  0
 12 13  2  0     0  0
 14 16  2  0     0  0
 15 16  1  0     0  0
 17 23  1  0     0  0
 18 19  1  0     0  0
 18 20  1  0     0  0
 21 24  1  0     0  0
 22 23  1  0     0  0
 24 25  1  0     0  0
M  END
> <standard_type>
pIC50

> <# Confs.>
25

> <canonical_smiles>
CCCNCC(COC1=CC=CC=C1C(CCC2=CC=CC=C2)=O)O

> <standard_relation>
=

> <Publication_ID>
nan

> <predicted_activity_value>
nan

> <actual_activity_value>
0.3565473235138126

> <Compound>
Propafenone

> <standard_units>
uM

> hash
16913817477797103820

$$$$
43
XXILIB    08252103503D 0   0.00000     0.00000

 25 26  0     1  0            999 V2000
    0.0000    0.0000    0.0000 O   0  0  0  0  0  2           0  0  0
   -1.9808    2.2623   -0.1112 O   0  0  0  0  0  2           0  0  0
    1.4074    2.0583   -1.2310 O   0  0  0  0  0  2           0  0  0
    1.9491   -1.3544   -2.6368 N   0  0  0  0  0  3           0  0  0
   -0.4644    0.0000    1.2906 C   0  0  0  0  0  4           0  0  0
   -1.7013    0.6238    1.5372 C   0  0  0  0  0  4           0  0  0
   -5.6482    0.5414   -1.6038 C   0  0  0  0  0  4           0  0  0
    0.2061   -0.6149    2.3582 C   0  0  0  0  0  4           0  0  0
   -2.2552    0.6068    2.8258 C   0  0  0  0  0  4           0  0  0
   -6.7537    1.3959   -1.4966 C   0  0  0  0  0  4           0  0  0
   -5.8452   -0.7715   -2.0531 C   0  0  0  0  0  4           0  0  0
   -0.3462   -0.6157    3.6413 C   0  0  0  0  0  4           0  0  0
   -1.5759   -0.0093    3.8744 C   0  0  0  0  0  4           0  0  0
   -8.0330    0.9424   -1.8225 C   0  0  0  0  0  4           0  0  0
   -7.1255   -1.2229   -2.3786 C   0  0  0  0  0  4           0  0  0
   -8.2190   -0.3668   -2.2624 C   0  0  0  0  0  4           0  0  0
   -2.4826    1.3111    0.4824 C   0  0  0  0  0  4           0  0  0
    1.8991    0.7172   -1.2422 C   0  0  1  0  0  4           0  0  0
    1.4264   -0.0000   -0.0000 C   0  0  0  0  0  4           0  0  0
    1.4814    0.0324   -2.5463 C   0  0  0  0  0  4           0  0  0
    1.5441   -1.9952   -3.8846 C   0  0  0  0  0  4           0  0  0
   -4.2671    1.0347   -1.2734 C   0  0  0  0  0  4           0  0  0
   -3.8793    0.8028    0.1831 C   0  0  0  0  0  4           0  0  0
    2.0258   -3.4444   -3.9930 C   0  0  0  0  0  4           0  0  0
    1.5859   -4.0783   -5.3036 C   0  0  0  0  0  4           0  0  0
  1  5  1  0     0  0
  1 19  1  0     0  0
  2 17  2  0     0  0
  3 18  1  0     0  0
  4 20  1  0     0  0
  4 21  1  0     0  0
  5  6  1  0     0  0
  5  8  2  0     0  0
  6  9  2  0     0  0
  6 17  1  0     0  0
  7 10  2  0     0  0
  7 11  1  0     0  0
  7 22  1  0     0  0
  8 12  1  0     0  0
  9 13  1  0     0  0
 10 14  1  0     0  0
 11 15  2  0     0  0
 12 13  2  0     0  0
 14 16  2  0     0  0
 15 16  1  0     0  0
 17 23  1  0     0  0
 18 19  1  0     0  0
 18 20  1  0     0  0
 21 24  1  0     0  0
 22 23  1  0     0  0
 24 25  1  0     0  0
M  END
> <standard_type>
pIC50

> <# Confs.>
25

> <canonical_smiles>
CCCNCC(COC1=CC=CC=C1C(CCC2=CC=CC=C2)=O)O

> <standard_relation>
=

> <Publication_ID>
nan

> <predicted_activity_value>
nan

> <actual_activity_value>
0.3565473235138126

> <Compound>
Propafenone

> <standard_units>
uM

> hash
16913817477797103820

$$$$
43
XXILIB    08252103503D 0   0.00000     0.00000

 25 26  0     1  0            999 V2000
    0.0000    0.0000    0.0000 O   0  0  0  0  0  2           0  0  0
   -3.7076    1.3412    0.5677 O   0  0  0  0  0  2           0  0  0
    1.4074    1.1670   -2.0952 O   0  0  0  0  0  2           0  0  0
    1.9491   -2.4913   -1.6063 N   0  0  0  0  0  3           0  0  0
   -0.4644    0.0000    1.2906 C   0  0  0  0  0  4           0  0  0
   -1.7013    0.6238    1.5372 C   0  0  0  0  0  4           0  0  0
   -1.7356    3.8225   -2.3638 C   0  0  0  0  0  4           0  0  0
    0.2061   -0.6149    2.3582 C   0  0  0  0  0  4           0  0  0
   -2.2552    0.6068    2.8258 C   0  0  0  0  0  4           0  0  0
   -1.9958    3.4424   -3.6873 C   0  0  0  0  0  4           0  0  0
   -0.8111    4.8474   -2.1203 C   0  0  0  0  0  4           0  0  0
   -0.3462   -0.6157    3.6413 C   0  0  0  0  0  4           0  0  0
   -1.5759   -0.0093    3.8744 C   0  0  0  0  0  4           0  0  0
   -1.3360    4.0684   -4.7462 C   0  0  0  0  0  4           0  0  0
   -0.1524    5.4722   -3.1808 C   0  0  0  0  0  4           0  0  0
   -0.4139    5.0823   -4.4931 C   0  0  0  0  0  4           0  0  0
   -2.4826    1.3111    0.4824 C   0  0  0  0  0  4           0  0  0
    1.8991    0.0000   -1.4344 C   0  0  1  0  0  4           0  0  0
    1.4264   -0.0000   -0.0000 C   0  0  0  0  0  4           0  0  0
    1.4814   -1.2451   -2.2213 C   0  0  0  0  0  4           0  0  0
    1.5441   -3.6702   -2.3666 C   0  0  0  0  0  4           0  0  0
   -2.4611    3.1638   -1.2237 C   0  0  0  0  0  4           0  0  0
   -1.7250    1.9510   -0.6645 C   0  0  0  0  0  4           0  0  0
    2.0258   -4.9794   -1.7358 C   0  0  0  0  0  4           0  0  0
    1.5859   -6.1837   -2.5539 C   0  0  0  0  0  4           0  0  0
  1  5  1  0     0  0
  1 19  1  0     0  0
  2 17  2  0     0  0
  3 18  1  0     0  0
  4 20  1  0     0  0
  4 21  1  0     0  0
  5  6  1  0     0  0
  5  8  2  0     0  0
  6  9  2  0     0  0
  6 17  1  0     0  0
  7 10  2  0     0  0
  7 11  1  0     0  0
  7 22  1  0     0  0
  8 12  1  0     0  0
  9 13  1  0     0  0
 10 14  1  0     0  0
 11 15  2  0     0  0
 12 13  2  0     0  0
 14 16  2  0     0  0
 15 16  1  0     0  0
 17 23  1  0     0  0
 18 19  1  0     0  0
 18 20  1  0     0  0
 21 24  1  0     0  0
 22 23  1  0     0  0
 24 25  1  0     0  0
M  END
> <standard_type>
pIC50

> <# Confs.>
25

> <canonical_smiles>
CCCNCC(COC1=CC=CC=C1C(CCC2=CC=CC=C2)=O)O

> <standard_relation>
=

> <Publication_ID>
nan

> <predicted_activity_value>
nan

> <actual_activity_value>
0.3565473235138126

> <Compound>
Propafenone

> <standard_units>
uM

> hash
16913817477797103820

$$$$
43
XXILIB    08252103503D 0   0.00000     0.00000

 25 26  0     1  0            999 V2000
    0.0000    0.0000    0.0000 O   0  0  0  0  0  2           0  0  0
   -2.2912    2.5072    0.2784 O   0  0  0  0  0  2           0  0  0
    3.3272    0.7313   -1.2666 O   0  0  0  0  0  2           0  0  0
    1.8309    3.0199   -0.2768 N   0  0  0  0  0  3           0  0  0
   -0.4644    0.0000    1.2906 C   0  0  0  0  0  4           0  0  0
   -1.7013    0.6238    1.5372 C   0  0  0  0  0  4           0  0  0
   -4.6639    0.2416   -2.5283 C   0  0  0  0  0  4           0  0  0
    0.2061   -0.6149    2.3582 C   0  0  0  0  0  4           0  0  0
   -2.2552    0.6068    2.8258 C   0  0  0  0  0  4           0  0  0
   -6.0140    0.6161   -2.5527 C   0  0  0  0  0  4           0  0  0
   -4.2498   -0.8585   -3.2916 C   0  0  0  0  0  4           0  0  0
   -0.3462   -0.6157    3.6413 C   0  0  0  0  0  4           0  0  0
   -1.5759   -0.0093    3.8744 C   0  0  0  0  0  4           0  0  0
   -6.9341   -0.1028   -3.3177 C   0  0  0  0  0  4           0  0  0
   -5.1717   -1.5760   -4.0560 C   0  0  0  0  0  4           0  0  0
   -6.5134   -1.1990   -4.0683 C   0  0  0  0  0  4           0  0  0
   -2.4826    1.3111    0.4824 C   0  0  0  0  0  4           0  0  0
    1.8991    0.7172   -1.2422 C   0  0  1  0  0  4           0  0  0
    1.4264    0.0000    0.0000 C   0  0  0  0  0  4           0  0  0
    1.3733    2.1498   -1.3649 C   0  0  0  0  0  4           0  0  0
    1.3224    4.3824   -0.4061 C   0  0  0  0  0  4           0  0  0
   -3.6681    1.0277   -1.7217 C   0  0  0  0  0  4           0  0  0
   -3.4923    0.4971   -0.3029 C   0  0  0  0  0  4           0  0  0
    1.7924    5.3025    0.7237 C   0  0  0  0  0  4           0  0  0
    1.2439    6.7111    0.5560 C   0  0  0  0  0  4           0  0  0
  1  5  1  0     0  0
  1 19  1  0     0  0
  2 17  2  0     0  0
  3 18  1  0     0  0
  4 20  1  0     0  0
  4 21  1  0     0  0
  5  6  1  0     0  0
  5  8  2  0     0  0
  6  9  2  0     0  0
  6 17  1  0     0  0
  7 10  2  0     0  0
  7 11  1  0     0  0
  7 22  1  0     0  0
  8 12  1  0     0  0
  9 13  1  0     0  0
 10 14  1  0     0  0
 11 15  2  0     0  0
 12 13  2  0     0  0
 14 16  2  0     0  0
 15 16  1  0     0  0
 17 23  1  0     0  0
 18 19  1  0     0  0
 18 20  1  0     0  0
 21 24  1  0     0  0
 22 23  1  0     0  0
 24 25  1  0     0  0
M  END
> <standard_type>
pIC50

> <# Confs.>
25

> <canonical_smiles>
CCCNCC(COC1=CC=CC=C1C(CCC2=CC=CC=C2)=O)O

> <standard_relation>
=

> <Publication_ID>
nan

> <predicted_activity_value>
nan

> <actual_activity_value>
0.3565473235138126

> <Compound>
Propafenone

> <standard_units>
uM

> hash
16913817477797103820

$$$$
43
XXILIB    08252103503D 0   0.00000     0.00000

 25 26  0     1  0            999 V2000
   -0.0000    0.0000    0.0000 O   0  0  0  0  0  2           0  0  0
   -3.3059    0.6710   -0.1666 O   0  0  0  0  0  2           0  0  0
    3.3272    0.7313   -1.2666 O   0  0  0  0  0  2           0  0  0
    1.8309    3.0199   -0.2768 N   0  0  0  0  0  3           0  0  0
   -0.4644    0.0000    1.2906 C   0  0  0  0  0  4           0  0  0
   -1.7013    0.6238    1.5372 C   0  0  0  0  0  4           0  0  0
   -3.2513    4.9759   -0.4894 C   0  0  0  0  0  4           0  0  0
    0.2061   -0.6149    2.3582 C   0  0  0  0  0  4           0  0  0
   -2.2552    0.6068    2.8258 C   0  0  0  0  0  4           0  0  0
   -2.8535    5.4393   -1.7506 C   0  0  0  0  0  4           0  0  0
   -3.4699    5.9041    0.5378 C   0  0  0  0  0  4           0  0  0
   -0.3462   -0.6157    3.6413 C   0  0  0  0  0  4           0  0  0
   -1.5759   -0.0093    3.8744 C   0  0  0  0  0  4           0  0  0
   -2.6677    6.8041   -1.9769 C   0  0  0  0  0  4           0  0  0
   -3.2836    7.2686    0.3093 C   0  0  0  0  0  4           0  0  0
   -2.8817    7.7184   -0.9471 C   0  0  0  0  0  4           0  0  0
   -2.4826    1.3111    0.4824 C   0  0  0  0  0  4           0  0  0
    1.8991    0.7172   -1.2422 C   0  0  1  0  0  4           0  0  0
    1.4264    0.0000    0.0000 C   0  0  0  0  0  4           0  0  0
    1.3733    2.1498   -1.3649 C   0  0  0  0  0  4           0  0  0
    1.3224    4.3824   -0.4061 C   0  0  0  0  0  4           0  0  0
   -3.4724    3.5083   -0.2501 C   0  0  0  0  0  4           0  0  0
   -2.2257    2.7874    0.2515 C   0  0  0  0  0  4           0  0  0
    1.7924    5.3025    0.7237 C   0  0  0  0  0  4           0  0  0
    1.2439    6.7111    0.5560 C   0  0  0  0  0  4           0  0  0
  1  5  1  0     0  0
  1 19  1  0     0  0
  2 17  2  0     0  0
  3 18  1  0     0  0
  4 20  1  0     0  0
  4 21  1  0     0  0
  5  6  1  0     0  0
  5  8  2  0     0  0
  6  9  2  0     0  0
  6 17  1  0     0  0
  7 10  2  0     0  0
  7 11  1  0     0  0
  7 22  1  0     0  0
  8 12  1  0     0  0
  9 13  1  0     0  0
 10 14  1  0     0  0
 11 15  2  0     0  0
 12 13  2  0     0  0
 14 16  2  0     0  0
 15 16  1  0     0  0
 17 23  1  0     0  0
 18 19  1  0     0  0
 18 20  1  0     0  0
 21 24  1  0     0  0
 22 23  1  0     0  0
 24 25  1  0     0  0
M  END
> <standard_type>
pIC50

> <# Confs.>
25

> <canonical_smiles>
CCCNCC(COC1=CC=CC=C1C(CCC2=CC=CC=C2)=O)O

> <standard_relation>
=

> <Publication_ID>
nan

> <predicted_activity_value>
nan

> <actual_activity_value>
0.3565473235138126

> <Compound>
Propafenone

> <standard_units>
uM

> hash
16913817477797103820

$$$$
43
XXILIB    08252103503D 0   0.00000     0.00000

 25 26  0     1  0            999 V2000
    0.0000    0.0000    0.0000 O   0  0  0  0  0  2           0  0  0
   -3.9231   -0.4867    0.4902 O   0  0  0  0  0  2           0  0  0
    1.4074    1.1670   -2.0952 O   0  0  0  0  0  2           0  0  0
    0.0265   -1.3800   -2.3443 N   0  0  0  0  0  3           0  0  0
   -0.4644   -0.0000    1.2906 C   0  0  0  0  0  4           0  0  0
   -1.8585    0.0000    1.4806 C   0  0  0  0  0  4           0  0  0
   -3.2272    2.0937   -2.9005 C   0  0  0  0  0  4           0  0  0
    0.3703   -0.0363    2.4173 C   0  0  0  0  0  4           0  0  0
   -2.3938   -0.0571    2.7760 C   0  0  0  0  0  4           0  0  0
   -3.2213    1.4180   -4.1282 C   0  0  0  0  0  4           0  0  0
   -2.9050    3.4574   -2.8737 C   0  0  0  0  0  4           0  0  0
   -0.1709   -0.0796    3.7044 C   0  0  0  0  0  4           0  0  0
   -1.5500   -0.0936    3.8837 C   0  0  0  0  0  4           0  0  0
   -2.8890    2.0914   -5.3050 C   0  0  0  0  0  4           0  0  0
   -2.5731    4.1289   -4.0518 C   0  0  0  0  0  4           0  0  0
   -2.5641    3.4461   -5.2667 C   0  0  0  0  0  4           0  0  0
   -2.8256    0.0491    0.3590 C   0  0  0  0  0  4           0  0  0
    1.8991    0.0000   -1.4344 C   0  0  1  0  0  4           0  0  0
    1.4264    0.0000    0.0000 C   0  0  0  0  0  4           0  0  0
    1.4814   -1.2451   -2.2213 C   0  0  0  0  0  4           0  0  0
   -0.3578   -2.5709   -3.0966 C   0  0  0  0  0  4           0  0  0
   -3.6054    1.3750   -1.6354 C   0  0  0  0  0  4           0  0  0
   -2.4099    0.7655   -0.9109 C   0  0  0  0  0  4           0  0  0
   -1.8749   -2.7247   -3.2329 C   0  0  0  0  0  4           0  0  0
   -2.2368   -3.9741   -4.0211 C   0  0  0  0  0  4           0  0  0
  1  5  1  0     0  0
  1 19  1  0     0  0
  2 17  2  0     0  0
  3 18  1  0     0  0
  4 20  1  0     0  0
  4 21  1  0     0  0
  5  6  1  0     0  0
  5  8  2  0     0  0
  6  9  2  0     0  0
  6 17  1  0     0  0
  7 10  2  0     0  0
  7 11  1  0     0  0
  7 22  1  0     0  0
  8 12  1  0     0  0
  9 13  1  0     0  0
 10 14  1  0     0  0
 11 15  2  0     0  0
 12 13  2  0     0  0
 14 16  2  0     0  0
 15 16  1  0     0  0
 17 23  1  0     0  0
 18 19  1  0     0  0
 18 20  1  0     0  0
 21 24  1  0     0  0
 22 23  1  0     0  0
 24 25  1  0     0  0
M  END
> <standard_type>
pIC50

> <# Confs.>
25

> <canonical_smiles>
CCCNCC(COC1=CC=CC=C1C(CCC2=CC=CC=C2)=O)O

> <standard_relation>
=

> <Publication_ID>
nan

> <predicted_activity_value>
nan

> <actual_activity_value>
0.3565473235138126

> <Compound>
Propafenone

> <standard_units>
uM

> hash
16913817477797103820

$$$$
43
XXILIB    08252103503D 0   0.00000     0.00000

 25 26  0     1  0            999 V2000
    0.0000    0.0000    0.0000 O   0  0  0  0  0  2           0  0  0
   -2.8595    0.6721   -0.4966 O   0  0  0  0  0  2           0  0  0
    3.3272    0.7313   -1.2666 O   0  0  0  0  0  2           0  0  0
    1.8309    3.0199   -0.2768 N   0  0  0  0  0  3           0  0  0
   -0.4644   -0.0000    1.2906 C   0  0  0  0  0  4           0  0  0
   -1.7013    0.6238    1.5372 C   0  0  0  0  0  4           0  0  0
   -3.9053    4.8101   -0.3535 C   0  0  0  0  0  4           0  0  0
    0.2061   -0.6149    2.3582 C   0  0  0  0  0  4           0  0  0
   -2.2552    0.6068    2.8258 C   0  0  0  0  0  4           0  0  0
   -3.0460    5.7805   -0.8862 C   0  0  0  0  0  4           0  0  0
   -5.0785    5.2225    0.2931 C   0  0  0  0  0  4           0  0  0
   -0.3462   -0.6157    3.6413 C   0  0  0  0  0  4           0  0  0
   -1.5759   -0.0093    3.8744 C   0  0  0  0  0  4           0  0  0
   -3.3493    7.1377   -0.7650 C   0  0  0  0  0  4           0  0  0
   -5.3798    6.5803    0.4130 C   0  0  0  0  0  4           0  0  0
   -4.5153    7.5375   -0.1148 C   0  0  0  0  0  4           0  0  0
   -2.4826    1.3111    0.4824 C   0  0  0  0  0  4           0  0  0
    1.8991    0.7172   -1.2422 C   0  0  1  0  0  4           0  0  0
    1.4264    0.0000    0.0000 C   0  0  0  0  0  4           0  0  0
    1.3733    2.1498   -1.3649 C   0  0  0  0  0  4           0  0  0
    1.3224    4.3824   -0.4061 C   0  0  0  0  0  4           0  0  0
   -3.5907    3.3476   -0.5018 C   0  0  0  0  0  4           0  0  0
   -2.7824    2.7863    0.6632 C   0  0  0  0  0  4           0  0  0
    1.7924    5.3025    0.7237 C   0  0  0  0  0  4           0  0  0
    1.2439    6.7111    0.5560 C   0  0  0  0  0  4           0  0  0
  1  5  1  0     0  0
  1 19  1  0     0  0
  2 17  2  0     0  0
  3 18  1  0     0  0
  4 20  1  0     0  0
  4 21  1  0     0  0
  5  6  1  0     0  0
  5  8  2  0     0  0
  6  9  2  0     0  0
  6 17  1  0     0  0
  7 10  2  0     0  0
  7 11  1  0     0  0
  7 22  1  0     0  0
  8 12  1  0     0  0
  9 13  1  0     0  0
 10 14  1  0     0  0
 11 15  2  0     0  0
 12 13  2  0     0  0
 14 16  2  0     0  0
 15 16  1  0     0  0
 17 23  1  0     0  0
 18 19  1  0     0  0
 18 20  1  0     0  0
 21 24  1  0     0  0
 22 23  1  0     0  0
 24 25  1  0     0  0
M  END
> <standard_type>
pIC50

> <# Confs.>
25

> <canonical_smiles>
CCCNCC(COC1=CC=CC=C1C(CCC2=CC=CC=C2)=O)O

> <standard_relation>
=

> <Publication_ID>
nan

> <predicted_activity_value>
nan

> <actual_activity_value>
0.3565473235138126

> <Compound>
Propafenone

> <standard_units>
uM

> hash
16913817477797103820

$$$$
43
XXILIB    08252103503D 0   0.00000     0.00000

 25 26  0     1  0            999 V2000
    0.0000    0.0000    0.0000 O   0  0  0  0  0  2           0  0  0
   -1.9808    2.2623   -0.1112 O   0  0  0  0  0  2           0  0  0
    1.4074    2.0583   -1.2310 O   0  0  0  0  0  2           0  0  0
    0.0265   -0.0230   -2.7202 N   0  0  0  0  0  3           0  0  0
   -0.4644    0.0000    1.2906 C   0  0  0  0  0  4           0  0  0
   -1.7013    0.6238    1.5372 C   0  0  0  0  0  4           0  0  0
   -5.6482    0.5414   -1.6038 C   0  0  0  0  0  4           0  0  0
    0.2061   -0.6149    2.3582 C   0  0  0  0  0  4           0  0  0
   -2.2552    0.6068    2.8258 C   0  0  0  0  0  4           0  0  0
   -6.7537    1.3959   -1.4966 C   0  0  0  0  0  4           0  0  0
   -5.8452   -0.7715   -2.0531 C   0  0  0  0  0  4           0  0  0
   -0.3462   -0.6157    3.6413 C   0  0  0  0  0  4           0  0  0
   -1.5759   -0.0093    3.8744 C   0  0  0  0  0  4           0  0  0
   -8.0330    0.9424   -1.8225 C   0  0  0  0  0  4           0  0  0
   -7.1255   -1.2229   -2.3786 C   0  0  0  0  0  4           0  0  0
   -8.2190   -0.3668   -2.2624 C   0  0  0  0  0  4           0  0  0
   -2.4826    1.3111    0.4824 C   0  0  0  0  0  4           0  0  0
    1.8991    0.7172   -1.2422 C   0  0  1  0  0  4           0  0  0
    1.4264    0.0000    0.0000 C   0  0  0  0  0  4           0  0  0
    1.4814    0.0324   -2.5463 C   0  0  0  0  0  4           0  0  0
   -0.3578   -0.6782   -3.9671 C   0  0  0  0  0  4           0  0  0
   -4.2671    1.0347   -1.2734 C   0  0  0  0  0  4           0  0  0
   -3.8793    0.8028    0.1831 C   0  0  0  0  0  4           0  0  0
   -1.8749   -0.7431   -4.1621 C   0  0  0  0  0  4           0  0  0
   -2.2368   -1.4311   -5.4694 C   0  0  0  0  0  4           0  0  0
  1  5  1  0     0  0
  1 19  1  0     0  0
  2 17  2  0     0  0
  3 18  1  0     0  0
  4 20  1  0     0  0
  4 21  1  0     0  0
  5  6  1  0     0  0
  5  8  2  0     0  0
  6  9  2  0     0  0
  6 17  1  0     0  0
  7 10  2  0     0  0
  7 11  1  0     0  0
  7 22  1  0     0  0
  8 12  1  0     0  0
  9 13  1  0     0  0
 10 14  1  0     0  0
 11 15  2  0     0  0
 12 13  2  0     0  0
 14 16  2  0     0  0
 15 16  1  0     0  0
 17 23  1  0     0  0
 18 19  1  0     0  0
 18 20  1  0     0  0
 21 24  1  0     0  0
 22 23  1  0     0  0
 24 25  1  0     0  0
M  END
> <standard_type>
pIC50

> <# Confs.>
25

> <canonical_smiles>
CCCNCC(COC1=CC=CC=C1C(CCC2=CC=CC=C2)=O)O

> <standard_relation>
=

> <Publication_ID>
nan

> <predicted_activity_value>
nan

> <actual_activity_value>
0.3565473235138126

> <Compound>
Propafenone

> <standard_units>
uM

> hash
16913817477797103820

$$$$
48
XXILIB    08252103503D 0   0.00000     0.00000

 31 35  0     1  0            999 V2000
   -5.8419    5.5976    2.6944 Cl  0  0  0  0  0  1           0  0  0
  -10.2521   -3.0397   -1.7168 F   0  0  0  0  0  1           0  0  0
    3.9676   -0.1239    2.7426 O   0  0  0  0  0  2           0  0  0
   -6.2513    0.3276    0.0869 N   0  0  0  0  0  3           0  0  0
    3.5072   -1.2308    0.7106 N   0  0  1  0  0  3           0  0  0
   -0.0000    0.0000    0.0000 N   0  0  1  0  0  3           0  0  0
    5.6523   -0.8314    1.2769 N   0  0  0  0  0  3           0  0  0
   -6.0466    4.0631    1.9381 C   0  0  0  0  0  4           0  0  0
   -9.2806   -2.2280   -1.2761 C   0  0  0  0  0  4           0  0  0
   -6.3808    1.5773    0.7030 C   0  0  0  0  0  4           0  0  0
   -4.9024    0.0431   -0.0223 C   0  0  0  0  0  4           0  0  0
   -7.2686   -0.5362   -0.3683 C   0  0  0  0  0  4           0  0  0
   -5.0848    2.0495    0.9724 C   0  0  0  0  0  4           0  0  0
   -4.1539    1.0714    0.5073 C   0  0  0  0  0  4           0  0  0
   -4.9228    3.3075    1.6001 C   0  0  0  0  0  4           0  0  0
   -7.3232    3.5936    1.6682 C   0  0  0  0  0  4           0  0  0
   -8.0440   -2.2316   -1.9130 C   0  0  0  0  0  4           0  0  0
   -9.5255   -1.3944   -0.1898 C   0  0  0  0  0  4           0  0  0
   -7.5069    2.3517    1.0522 C   0  0  0  0  0  4           0  0  0
   -7.0324   -1.3838   -1.4601 C   0  0  0  0  0  4           0  0  0
   -8.5178   -0.5447    0.2685 C   0  0  0  0  0  4           0  0  0
    4.3244   -0.6648    1.7041 C   0  0  0  0  0  4           0  0  0
    2.0549   -1.2204    0.7046 C   0  0  0  0  0  4           0  0  0
    4.2851   -1.6881   -0.4235 C   0  0  0  0  0  4           0  0  0
    1.4659    0.0000   -0.0000 C   0  0  0  0  0  4           0  0  0
   -0.5400    0.0000    1.3697 C   0  0  0  0  0  4           0  0  0
   -0.5033    1.1573   -0.7568 C   0  0  0  0  0  4           0  0  0
    5.7285   -1.5656    0.0395 C   0  0  0  0  0  4           0  0  0
   -2.6620    1.1193    0.5613 C   0  0  1  0  0  4           0  0  0
   -2.0702   -0.0466    1.3651 C   0  0  0  0  0  4           0  0  0
   -2.0313    1.1504   -0.8376 C   0  0  0  0  0  4           0  0  0
  1  8  1  0     0  0
  2  9  1  0     0  0
  3 22  2  0     0  0
  4 10  1  0     0  0
  4 11  1  0     0  0
  4 12  1  0     0  0
  5 22  1  0     0  0
  5 23  1  0     0  0
  5 24  1  0     0  0
  6 25  1  0     0  0
  6 26  1  0     0  0
  6 27  1  0     0  0
  7 22  1  0     0  0
  7 28  1  0     0  0
  8 15  2  0     0  0
  8 16  1  0     0  0
  9 17  2  0     0  0
  9 18  1  0     0  0
 10 13  2  0     0  0
 10 19  1  0     0  0
 11 14  2  0     0  0
 12 20  2  0     0  0
 12 21  1  0     0  0
 13 14  1  0     0  0
 13 15  1  0     0  0
 14 29  1  0     0  0
 16 19  2  0     0  0
 17 20  1  0     0  0
 18 21  2  0     0  0
 23 25  1  0     0  0
 24 28  1  0     0  0
 26 30  1  0     0  0
 27 31  1  0     0  0
 29 30  1  0     0  0
 29 31  1  0     0  0
M  END
> <standard_type>
pIC50

> <# Confs.>
25

> <canonical_smiles>
FC1=CC=C(N2C=C(C3=C2C=CC(Cl)=C3)C4CCN(CCN5CCNC5=O)CC4)C=C1

> <standard_relation>
=

> <Publication_ID>
nan

> <predicted_activity_value>
nan

> <actual_activity_value>
1.853871964321762

> <Compound>
Sertindole

> <standard_units>
uM

> hash
1138031612468941526

$$$$
48
XXILIB    08252103503D 0   0.00000     0.00000

 31 35  0     1  0            999 V2000
   -5.3862   -3.5486   -1.7856 Cl  0  0  0  0  0  1           0  0  0
  -10.6476    4.7785    2.2752 F   0  0  0  0  0  1           0  0  0
    3.9676   -0.1239    2.7426 O   0  0  0  0  0  2           0  0  0
   -6.3195    1.6784    0.7733 N   0  0  0  0  0  3           0  0  0
    3.5072   -1.2308    0.7106 N   0  0  1  0  0  3           0  0  0
    0.0000    0.0000    0.0000 N   0  0  1  0  0  3           0  0  0
    5.6523   -0.8314    1.2769 N   0  0  0  0  0  3           0  0  0
   -5.7428   -2.0321   -1.0497 C   0  0  0  0  0  4           0  0  0
   -9.5967    4.0317    1.9079 C   0  0  0  0  0  4           0  0  0
   -6.3238    0.4244    0.1523 C   0  0  0  0  0  4           0  0  0
   -5.0030    2.0484    0.9790 C   0  0  0  0  0  4           0  0  0
   -7.4203    2.4742    1.1517 C   0  0  0  0  0  4           0  0  0
   -4.9842    0.0368   -0.0216 C   0  0  0  0  0  4           0  0  0
   -4.1539    1.0714    0.5073 C   0  0  0  0  0  4           0  0  0
   -4.6970   -1.2069   -0.6331 C   0  0  0  0  0  4           0  0  0
   -7.0630   -1.6458   -0.8738 C   0  0  0  0  0  4           0  0  0
   -8.4122    4.1129    2.6324 C   0  0  0  0  0  4           0  0  0
   -9.7087    3.1866    0.8086 C   0  0  0  0  0  4           0  0  0
   -7.3699   -0.4197   -0.2756 C   0  0  0  0  0  4           0  0  0
   -7.3183    3.3326    2.2558 C   0  0  0  0  0  4           0  0  0
   -8.6182    2.4042    0.4263 C   0  0  0  0  0  4           0  0  0
    4.3244   -0.6648    1.7041 C   0  0  0  0  0  4           0  0  0
    2.0549   -1.2204    0.7046 C   0  0  0  0  0  4           0  0  0
    4.2851   -1.6881   -0.4235 C   0  0  0  0  0  4           0  0  0
    1.4659    0.0000   -0.0000 C   0  0  0  0  0  4           0  0  0
   -0.5400    0.0000    1.3697 C   0  0  0  0  0  4           0  0  0
   -0.5033    1.1573   -0.7568 C   0  0  0  0  0  4           0  0  0
    5.7285   -1.5656    0.0395 C   0  0  0  0  0  4           0  0  0
   -2.6620    1.1193    0.5613 C   0  0  1  0  0  4           0  0  0
   -2.0702   -0.0466    1.3651 C   0  0  0  0  0  4           0  0  0
   -2.0313    1.1504   -0.8376 C   0  0  0  0  0  4           0  0  0
  1  8  1  0     0  0
  2  9  1  0     0  0
  3 22  2  0     0  0
  4 10  1  0     0  0
  4 11  1  0     0  0
  4 12  1  0     0  0
  5 22  1  0     0  0
  5 23  1  0     0  0
  5 24  1  0     0  0
  6 25  1  0     0  0
  6 26  1  0     0  0
  6 27  1  0     0  0
  7 22  1  0     0  0
  7 28  1  0     0  0
  8 15  2  0     0  0
  8 16  1  0     0  0
  9 17  2  0     0  0
  9 18  1  0     0  0
 10 13  2  0     0  0
 10 19  1  0     0  0
 11 14  2  0     0  0
 12 20  2  0     0  0
 12 21  1  0     0  0
 13 14  1  0     0  0
 13 15  1  0     0  0
 14 29  1  0     0  0
 16 19  2  0     0  0
 17 20  1  0     0  0
 18 21  2  0     0  0
 23 25  1  0     0  0
 24 28  1  0     0  0
 26 30  1  0     0  0
 27 31  1  0     0  0
 29 30  1  0     0  0
 29 31  1  0     0  0
M  END
> <standard_type>
pIC50

> <# Confs.>
25

> <canonical_smiles>
FC1=CC=C(N2C=C(C3=C2C=CC(Cl)=C3)C4CCN(CCN5CCNC5=O)CC4)C=C1

> <standard_relation>
=

> <Publication_ID>
nan

> <predicted_activity_value>
nan

> <actual_activity_value>
1.853871964321762

> <Compound>
Sertindole

> <standard_units>
uM

> hash
1138031612468941526

$$$$
48
XXILIB    08252103503D 0   0.00000     0.00000

 31 35  0     1  0            999 V2000
   -5.8582    3.8621    4.6818 Cl  0  0  0  0  0  1           0  0  0
  -10.2391   -1.5585   -3.3771 F   0  0  0  0  0  1           0  0  0
    3.9676   -0.1239    2.7426 O   0  0  0  0  0  2           0  0  0
   -6.2491    0.5901   -0.2050 N   0  0  0  0  0  3           0  0  0
    3.5072   -1.2308    0.7106 N   0  0  1  0  0  3           0  0  0
    0.0000    0.0000    0.0000 N   0  0  1  0  0  3           0  0  0
    5.6523   -0.8314    1.2769 N   0  0  0  0  0  3           0  0  0
   -6.0575    2.9060    3.2624 C   0  0  0  0  0  4           0  0  0
   -9.2703   -1.0346   -2.6130 C   0  0  0  0  0  4           0  0  0
   -6.3830    1.3620    0.9545 C   0  0  0  0  0  4           0  0  0
   -4.8990    0.4283   -0.4567 C   0  0  0  0  0  4           0  0  0
   -7.2637    0.0464   -1.0194 C   0  0  0  0  0  4           0  0  0
   -5.0883    1.6655    1.4092 C   0  0  0  0  0  4           0  0  0
   -4.1539    1.0714    0.5073 C   0  0  0  0  0  4           0  0  0
   -4.9306    2.4454    2.5796 C   0  0  0  0  0  4           0  0  0
   -7.3328    2.6055    2.8083 C   0  0  0  0  0  4           0  0  0
   -9.5038    0.1551   -1.9314 C   0  0  0  0  0  4           0  0  0
   -8.0475   -1.6902   -2.5134 C   0  0  0  0  0  4           0  0  0
   -7.5122    1.8332    1.6563 C   0  0  0  0  0  4           0  0  0
   -8.4992    0.7001   -1.1307 C   0  0  0  0  0  4           0  0  0
   -7.0383   -1.1501   -1.7150 C   0  0  0  0  0  4           0  0  0
    4.3244   -0.6648    1.7041 C   0  0  0  0  0  4           0  0  0
    2.0549   -1.2204    0.7046 C   0  0  0  0  0  4           0  0  0
    4.2851   -1.6881   -0.4235 C   0  0  0  0  0  4           0  0  0
    1.4659    0.0000   -0.0000 C   0  0  0  0  0  4           0  0  0
   -0.5400   -0.0000    1.3697 C   0  0  0  0  0  4           0  0  0
   -0.5033    1.1573   -0.7568 C   0  0  0  0  0  4           0  0  0
    5.7285   -1.5656    0.0395 C   0  0  0  0  0  4           0  0  0
   -2.6620    1.1193    0.5613 C   0  0  1  0  0  4           0  0  0
   -2.0702   -0.0466    1.3651 C   0  0  0  0  0  4           0  0  0
   -2.0313    1.1504   -0.8376 C   0  0  0  0  0  4           0  0  0
  1  8  1  0     0  0
  2  9  1  0     0  0
  3 22  2  0     0  0
  4 10  1  0     0  0
  4 11  1  0     0  0
  4 12  1  0     0  0
  5 22  1  0     0  0
  5 23  1  0     0  0
  5 24  1  0     0  0
  6 25  1  0     0  0
  6 26  1  0     0  0
  6 27  1  0     0  0
  7 22  1  0     0  0
  7 28  1  0     0  0
  8 15  2  0     0  0
  8 16  1  0     0  0
  9 17  2  0     0  0
  9 18  1  0     0  0
 10 13  2  0     0  0
 10 19  1  0     0  0
 11 14  2  0     0  0
 12 20  2  0     0  0
 12 21  1  0     0  0
 13 14  1  0     0  0
 13 15  1  0     0  0
 14 29  1  0     0  0
 16 19  2  0     0  0
 17 20  1  0     0  0
 18 21  2  0     0  0
 23 25  1  0     0  0
 24 28  1  0     0  0
 26 30  1  0     0  0
 27 31  1  0     0  0
 29 30  1  0     0  0
 29 31  1  0     0  0
M  END
> <standard_type>
pIC50

> <# Confs.>
25

> <canonical_smiles>
FC1=CC=C(N2C=C(C3=C2C=CC(Cl)=C3)C4CCN(CCN5CCNC5=O)CC4)C=C1

> <standard_relation>
=

> <Publication_ID>
nan

> <predicted_activity_value>
nan

> <actual_activity_value>
1.853871964321762

> <Compound>
Sertindole

> <standard_units>
uM

> hash
1138031612468941526

$$$$
48
XXILIB    08252103503D 0   0.00000     0.00000

 31 35  0     1  0            999 V2000
   -5.7646    6.1078    0.1068 Cl  0  0  0  0  0  1           0  0  0
  -10.3188   -3.5139    0.5571 F   0  0  0  0  0  1           0  0  0
    3.9676   -0.1239    2.7426 O   0  0  0  0  0  2           0  0  0
   -6.2626    0.2461    0.4707 N   0  0  0  0  0  3           0  0  0
    3.5072   -1.2308    0.7106 N   0  0  1  0  0  3           0  0  0
   -0.0000    0.0000    0.0000 N   0  0  1  0  0  3           0  0  0
    5.6523   -0.8314    1.2769 N   0  0  0  0  0  3           0  0  0
   -5.9951    4.4037    0.2135 C   0  0  0  0  0  4           0  0  0
   -9.3338   -2.6052    0.5311 C   0  0  0  0  0  4           0  0  0
   -6.3709    1.6381    0.3778 C   0  0  0  0  0  4           0  0  0
   -4.9192   -0.0735    0.5464 C   0  0  0  0  0  4           0  0  0
   -7.2938   -0.7155    0.4864 C   0  0  0  0  0  4           0  0  0
   -5.0678    2.1638    0.4024 C   0  0  0  0  0  4           0  0  0
   -4.1539    1.0714    0.5073 C   0  0  0  0  0  4           0  0  0
   -4.8847    3.5648    0.3214 C   0  0  0  0  0  4           0  0  0
   -7.2787    3.8797    0.1875 C   0  0  0  0  0  4           0  0  0
   -9.5173   -1.4161   -0.1667 C   0  0  0  0  0  4           0  0  0
   -8.1444   -2.8658    1.2038 C   0  0  0  0  0  4           0  0  0
   -7.4833    2.4988    0.2701 C   0  0  0  0  0  4           0  0  0
   -8.4958   -0.4657   -0.1910 C   0  0  0  0  0  4           0  0  0
   -7.1186   -1.9198    1.1829 C   0  0  0  0  0  4           0  0  0
    4.3244   -0.6648    1.7041 C   0  0  0  0  0  4           0  0  0
    2.0549   -1.2204    0.7046 C   0  0  0  0  0  4           0  0  0
    4.2851   -1.6881   -0.4235 C   0  0  0  0  0  4           0  0  0
    1.4659    0.0000   -0.0000 C   0  0  0  0  0  4           0  0  0
   -0.5400   -0.0000    1.3697 C   0  0  0  0  0  4           0  0  0
   -0.5033    1.1573   -0.7568 C   0  0  0  0  0  4           0  0  0
    5.7285   -1.5656    0.0395 C   0  0  0  0  0  4           0  0  0
   -2.6620    1.1193    0.5613 C   0  0  1  0  0  4           0  0  0
   -2.0702   -0.0466    1.3651 C   0  0  0  0  0  4           0  0  0
   -2.0313    1.1504   -0.8376 C   0  0  0  0  0  4           0  0  0
  1  8  1  0     0  0
  2  9  1  0     0  0
  3 22  2  0     0  0
  4 10  1  0     0  0
  4 11  1  0     0  0
  4 12  1  0     0  0
  5 22  1  0     0  0
  5 23  1  0     0  0
  5 24  1  0     0  0
  6 25  1  0     0  0
  6 26  1  0     0  0
  6 27  1  0     0  0
  7 22  1  0     0  0
  7 28  1  0     0  0
  8 15  2  0     0  0
  8 16  1  0     0  0
  9 17  2  0     0  0
  9 18  1  0     0  0
 10 13  2  0     0  0
 10 19  1  0     0  0
 11 14  2  0     0  0
 12 20  2  0     0  0
 12 21  1  0     0  0
 13 14  1  0     0  0
 13 15  1  0     0  0
 14 29  1  0     0  0
 16 19  2  0     0  0
 17 20  1  0     0  0
 18 21  2  0     0  0
 23 25  1  0     0  0
 24 28  1  0     0  0
 26 30  1  0     0  0
 27 31  1  0     0  0
 29 30  1  0     0  0
 29 31  1  0     0  0
M  END
> <standard_type>
pIC50

> <# Confs.>
25

> <canonical_smiles>
FC1=CC=C(N2C=C(C3=C2C=CC(Cl)=C3)C4CCN(CCN5CCNC5=O)CC4)C=C1

> <standard_relation>
=

> <Publication_ID>
nan

> <predicted_activity_value>
nan

> <actual_activity_value>
1.853871964321762

> <Compound>
Sertindole

> <standard_units>
uM

> hash
1138031612468941526

$$$$
48
XXILIB    08252103503D 0   0.00000     0.00000

 31 35  0     1  0            999 V2000
   -5.8419    5.5976    2.6944 Cl  0  0  0  0  0  1           0  0  0
  -10.2521   -3.0397   -1.7168 F   0  0  0  0  0  1           0  0  0
    3.9694    2.3135   -1.4637 O   0  0  0  0  0  2           0  0  0
   -6.2513    0.3276    0.0869 N   0  0  0  0  0  3           0  0  0
    3.5072   -0.0000   -1.4211 N   0  0  1  0  0  3           0  0  0
   -0.0000    0.0000    0.0000 N   0  0  1  0  0  3           0  0  0
    5.6544    0.6872   -1.3833 N   0  0  0  0  0  3           0  0  0
   -6.0466    4.0631    1.9381 C   0  0  0  0  0  4           0  0  0
   -9.2806   -2.2280   -1.2761 C   0  0  0  0  0  4           0  0  0
   -6.3808    1.5773    0.7030 C   0  0  0  0  0  4           0  0  0
   -4.9024    0.0431   -0.0223 C   0  0  0  0  0  4           0  0  0
   -7.2686   -0.5362   -0.3683 C   0  0  0  0  0  4           0  0  0
   -5.0848    2.0495    0.9724 C   0  0  0  0  0  4           0  0  0
   -4.1539    1.0714    0.5073 C   0  0  0  0  0  4           0  0  0
   -4.9228    3.3075    1.6001 C   0  0  0  0  0  4           0  0  0
   -7.3232    3.5936    1.6682 C   0  0  0  0  0  4           0  0  0
   -8.0440   -2.2316   -1.9130 C   0  0  0  0  0  4           0  0  0
   -9.5255   -1.3944   -0.1898 C   0  0  0  0  0  4           0  0  0
   -7.5069    2.3517    1.0522 C   0  0  0  0  0  4           0  0  0
   -7.0324   -1.3838   -1.4601 C   0  0  0  0  0  4           0  0  0
   -8.5178   -0.5447    0.2685 C   0  0  0  0  0  4           0  0  0
    4.3256    1.1431   -1.4279 C   0  0  0  0  0  4           0  0  0
    2.0549    0.0000   -1.4093 C   0  0  0  0  0  4           0  0  0
    4.2866   -1.2103   -1.2523 C   0  0  0  0  0  4           0  0  0
    1.4659   -0.0000    0.0000 C   0  0  0  0  0  4           0  0  0
   -0.5400    0.0000    1.3697 C   0  0  0  0  0  4           0  0  0
   -0.5033    1.1573   -0.7568 C   0  0  0  0  0  4           0  0  0
    5.7256   -0.7511   -1.4278 C   0  0  0  0  0  4           0  0  0
   -2.6620    1.1193    0.5613 C   0  0  1  0  0  4           0  0  0
   -2.0702   -0.0466    1.3651 C   0  0  0  0  0  4           0  0  0
   -2.0313    1.1504   -0.8376 C   0  0  0  0  0  4           0  0  0
  1  8  1  0     0  0
  2  9  1  0     0  0
  3 22  2  0     0  0
  4 10  1  0     0  0
  4 11  1  0     0  0
  4 12  1  0     0  0
  5 22  1  0     0  0
  5 23  1  0     0  0
  5 24  1  0     0  0
  6 25  1  0     0  0
  6 26  1  0     0  0
  6 27  1  0     0  0
  7 22  1  0     0  0
  7 28  1  0     0  0
  8 15  2  0     0  0
  8 16  1  0     0  0
  9 17  2  0     0  0
  9 18  1  0     0  0
 10 13  2  0     0  0
 10 19  1  0     0  0
 11 14  2  0     0  0
 12 20  2  0     0  0
 12 21  1  0     0  0
 13 14  1  0     0  0
 13 15  1  0     0  0
 14 29  1  0     0  0
 16 19  2  0     0  0
 17 20  1  0     0  0
 18 21  2  0     0  0
 23 25  1  0     0  0
 24 28  1  0     0  0
 26 30  1  0     0  0
 27 31  1  0     0  0
 29 30  1  0     0  0
 29 31  1  0     0  0
M  END
> <standard_type>
pIC50

> <# Confs.>
25

> <canonical_smiles>
FC1=CC=C(N2C=C(C3=C2C=CC(Cl)=C3)C4CCN(CCN5CCNC5=O)CC4)C=C1

> <standard_relation>
=

> <Publication_ID>
nan

> <predicted_activity_value>
nan

> <actual_activity_value>
1.853871964321762

> <Compound>
Sertindole

> <standard_units>
uM

> hash
1138031612468941526

$$$$
48
XXILIB    08252103503D 0   0.00000     0.00000

 31 35  0     1  0            999 V2000
   -5.8419    5.5976    2.6944 Cl  0  0  0  0  0  1           0  0  0
  -10.2521   -3.0397   -1.7168 F   0  0  0  0  0  1           0  0  0
    3.9694   -2.4244   -1.2717 O   0  0  0  0  0  2           0  0  0
   -6.2513    0.3276    0.0869 N   0  0  0  0  0  3           0  0  0
    3.5072   -1.2308    0.7106 N   0  0  1  0  0  3           0  0  0
   -0.0000    0.0000    0.0000 N   0  0  1  0  0  3           0  0  0
    5.6544   -1.5416    0.0965 N   0  0  0  0  0  3           0  0  0
   -6.0466    4.0631    1.9381 C   0  0  0  0  0  4           0  0  0
   -9.2806   -2.2280   -1.2761 C   0  0  0  0  0  4           0  0  0
   -6.3808    1.5773    0.7030 C   0  0  0  0  0  4           0  0  0
   -4.9024    0.0431   -0.0223 C   0  0  0  0  0  4           0  0  0
   -7.2686   -0.5362   -0.3683 C   0  0  0  0  0  4           0  0  0
   -5.0848    2.0495    0.9724 C   0  0  0  0  0  4           0  0  0
   -4.1539    1.0714    0.5073 C   0  0  0  0  0  4           0  0  0
   -4.9228    3.3075    1.6001 C   0  0  0  0  0  4           0  0  0
   -7.3232    3.5936    1.6682 C   0  0  0  0  0  4           0  0  0
   -8.0440   -2.2316   -1.9130 C   0  0  0  0  0  4           0  0  0
   -9.5255   -1.3944   -0.1898 C   0  0  0  0  0  4           0  0  0
   -7.5069    2.3517    1.0522 C   0  0  0  0  0  4           0  0  0
   -7.0324   -1.3838   -1.4601 C   0  0  0  0  0  4           0  0  0
   -8.5178   -0.5447    0.2685 C   0  0  0  0  0  4           0  0  0
    4.3256   -1.8081   -0.2760 C   0  0  0  0  0  4           0  0  0
    2.0549   -1.2204    0.7046 C   0  0  0  0  0  4           0  0  0
    4.2866   -0.4794    1.6743 C   0  0  0  0  0  4           0  0  0
    1.4659    0.0000    0.0000 C   0  0  0  0  0  4           0  0  0
   -0.5400    0.0000    1.3697 C   0  0  0  0  0  4           0  0  0
   -0.5033    1.1573   -0.7568 C   0  0  0  0  0  4           0  0  0
    5.7256   -0.8610    1.3644 C   0  0  0  0  0  4           0  0  0
   -2.6620    1.1193    0.5613 C   0  0  1  0  0  4           0  0  0
   -2.0702   -0.0466    1.3651 C   0  0  0  0  0  4           0  0  0
   -2.0313    1.1504   -0.8376 C   0  0  0  0  0  4           0  0  0
  1  8  1  0     0  0
  2  9  1  0     0  0
  3 22  2  0     0  0
  4 10  1  0     0  0
  4 11  1  0     0  0
  4 12  1  0     0  0
  5 22  1  0     0  0
  5 23  1  0     0  0
  5 24  1  0     0  0
  6 25  1  0     0  0
  6 26  1  0     0  0
  6 27  1  0     0  0
  7 22  1  0     0  0
  7 28  1  0     0  0
  8 15  2  0     0  0
  8 16  1  0     0  0
  9 17  2  0     0  0
  9 18  1  0     0  0
 10 13  2  0     0  0
 10 19  1  0     0  0
 11 14  2  0     0  0
 12 20  2  0     0  0
 12 21  1  0     0  0
 13 14  1  0     0  0
 13 15  1  0     0  0
 14 29  1  0     0  0
 16 19  2  0     0  0
 17 20  1  0     0  0
 18 21  2  0     0  0
 23 25  1  0     0  0
 24 28  1  0     0  0
 26 30  1  0     0  0
 27 31  1  0     0  0
 29 30  1  0     0  0
 29 31  1  0     0  0
M  END
> <standard_type>
pIC50

> <# Confs.>
25

> <canonical_smiles>
FC1=CC=C(N2C=C(C3=C2C=CC(Cl)=C3)C4CCN(CCN5CCNC5=O)CC4)C=C1

> <standard_relation>
=

> <Publication_ID>
nan

> <predicted_activity_value>
nan

> <actual_activity_value>
1.853871964321762

> <Compound>
Sertindole

> <standard_units>
uM

> hash
1138031612468941526

$$$$
48
XXILIB    08252103503D 0   0.00000     0.00000

 31 35  0     1  0            999 V2000
   -5.3862   -3.5486   -1.7856 Cl  0  0  0  0  0  1           0  0  0
  -10.6476    4.7785    2.2752 F   0  0  0  0  0  1           0  0  0
    3.9694    2.3135   -1.4637 O   0  0  0  0  0  2           0  0  0
   -6.3195    1.6784    0.7733 N   0  0  0  0  0  3           0  0  0
    3.5072   -0.0000   -1.4211 N   0  0  1  0  0  3           0  0  0
    0.0000    0.0000    0.0000 N   0  0  1  0  0  3           0  0  0
    5.6544    0.6872   -1.3833 N   0  0  0  0  0  3           0  0  0
   -5.7428   -2.0321   -1.0497 C   0  0  0  0  0  4           0  0  0
   -9.5967    4.0317    1.9079 C   0  0  0  0  0  4           0  0  0
   -6.3238    0.4244    0.1523 C   0  0  0  0  0  4           0  0  0
   -5.0030    2.0484    0.9790 C   0  0  0  0  0  4           0  0  0
   -7.4203    2.4742    1.1517 C   0  0  0  0  0  4           0  0  0
   -4.9842    0.0368   -0.0216 C   0  0  0  0  0  4           0  0  0
   -4.1539    1.0714    0.5073 C   0  0  0  0  0  4           0  0  0
   -4.6970   -1.2069   -0.6331 C   0  0  0  0  0  4           0  0  0
   -7.0630   -1.6458   -0.8738 C   0  0  0  0  0  4           0  0  0
   -8.4122    4.1129    2.6324 C   0  0  0  0  0  4           0  0  0
   -9.7087    3.1866    0.8086 C   0  0  0  0  0  4           0  0  0
   -7.3699   -0.4197   -0.2756 C   0  0  0  0  0  4           0  0  0
   -7.3183    3.3326    2.2558 C   0  0  0  0  0  4           0  0  0
   -8.6182    2.4042    0.4263 C   0  0  0  0  0  4           0  0  0
    4.3256    1.1431   -1.4279 C   0  0  0  0  0  4           0  0  0
    2.0549    0.0000   -1.4093 C   0  0  0  0  0  4           0  0  0
    4.2866   -1.2103   -1.2523 C   0  0  0  0  0  4           0  0  0
    1.4659   -0.0000    0.0000 C   0  0  0  0  0  4           0  0  0
   -0.5400    0.0000    1.3697 C   0  0  0  0  0  4           0  0  0
   -0.5033    1.1573   -0.7568 C   0  0  0  0  0  4           0  0  0
    5.7256   -0.7511   -1.4278 C   0  0  0  0  0  4           0  0  0
   -2.6620    1.1193    0.5613 C   0  0  1  0  0  4           0  0  0
   -2.0702   -0.0466    1.3651 C   0  0  0  0  0  4           0  0  0
   -2.0313    1.1504   -0.8376 C   0  0  0  0  0  4           0  0  0
  1  8  1  0     0  0
  2  9  1  0     0  0
  3 22  2  0     0  0
  4 10  1  0     0  0
  4 11  1  0     0  0
  4 12  1  0     0  0
  5 22  1  0     0  0
  5 23  1  0     0  0
  5 24  1  0     0  0
  6 25  1  0     0  0
  6 26  1  0     0  0
  6 27  1  0     0  0
  7 22  1  0     0  0
  7 28  1  0     0  0
  8 15  2  0     0  0
  8 16  1  0     0  0
  9 17  2  0     0  0
  9 18  1  0     0  0
 10 13  2  0     0  0
 10 19  1  0     0  0
 11 14  2  0     0  0
 12 20  2  0     0  0
 12 21  1  0     0  0
 13 14  1  0     0  0
 13 15  1  0     0  0
 14 29  1  0     0  0
 16 19  2  0     0  0
 17 20  1  0     0  0
 18 21  2  0     0  0
 23 25  1  0     0  0
 24 28  1  0     0  0
 26 30  1  0     0  0
 27 31  1  0     0  0
 29 30  1  0     0  0
 29 31  1  0     0  0
M  END
> <standard_type>
pIC50

> <# Confs.>
25

> <canonical_smiles>
FC1=CC=C(N2C=C(C3=C2C=CC(Cl)=C3)C4CCN(CCN5CCNC5=O)CC4)C=C1

> <standard_relation>
=

> <Publication_ID>
nan

> <predicted_activity_value>
nan

> <actual_activity_value>
1.853871964321762

> <Compound>
Sertindole

> <standard_units>
uM

> hash
1138031612468941526

$$$$
48
XXILIB    08252103503D 0   0.00000     0.00000

 31 35  0     1  0            999 V2000
   -5.3862   -3.5486   -1.7856 Cl  0  0  0  0  0  1           0  0  0
  -10.6462    4.8019    2.2298 F   0  0  0  0  0  1           0  0  0
    3.9795    0.7889    1.8357 O   0  0  0  0  0  2           0  0  0
   -6.3195    1.6784    0.7733 N   0  0  0  0  0  3           0  0  0
    3.5072   -1.2308    0.7106 N   0  0  1  0  0  3           0  0  0
    0.0000    0.0000    0.0000 N   0  0  1  0  0  3           0  0  0
    5.6563   -0.6786    1.1110 N   0  0  0  0  0  3           0  0  0
   -5.7428   -2.0321   -1.0497 C   0  0  0  0  0  4           0  0  0
   -9.5961    4.0446    1.8826 C   0  0  0  0  0  4           0  0  0
   -6.3238    0.4244    0.1523 C   0  0  0  0  0  4           0  0  0
   -5.0030    2.0484    0.9790 C   0  0  0  0  0  4           0  0  0
   -7.4203    2.4742    1.1517 C   0  0  0  0  0  4           0  0  0
   -4.9842    0.0368   -0.0216 C   0  0  0  0  0  4           0  0  0
   -4.1539    1.0714    0.5073 C   0  0  0  0  0  4           0  0  0
   -4.6970   -1.2069   -0.6331 C   0  0  0  0  0  4           0  0  0
   -7.0630   -1.6458   -0.8738 C   0  0  0  0  0  4           0  0  0
   -9.7222    2.6594    1.8786 C   0  0  0  0  0  4           0  0  0
   -8.3976    4.6567    1.5305 C   0  0  0  0  0  4           0  0  0
   -7.3699   -0.4197   -0.2756 C   0  0  0  0  0  4           0  0  0
   -8.6324    1.8685    1.5122 C   0  0  0  0  0  4           0  0  0
   -7.3037    3.8715    1.1638 C   0  0  0  0  0  4           0  0  0
    4.3303   -0.2466    1.2855 C   0  0  0  0  0  4           0  0  0
    2.0549   -1.2204    0.7046 C   0  0  0  0  0  4           0  0  0
    4.2790   -2.3720    0.2603 C   0  0  0  0  0  4           0  0  0
    1.4659   -0.0000   -0.0000 C   0  0  0  0  0  4           0  0  0
   -0.5400    0.0000    1.3697 C   0  0  0  0  0  4           0  0  0
   -0.5033    1.1573   -0.7568 C   0  0  0  0  0  4           0  0  0
    5.7223   -1.9027    0.3541 C   0  0  0  0  0  4           0  0  0
   -2.6620    1.1193    0.5613 C   0  0  1  0  0  4           0  0  0
   -2.0702   -0.0466    1.3651 C   0  0  0  0  0  4           0  0  0
   -2.0313    1.1504   -0.8376 C   0  0  0  0  0  4           0  0  0
  1  8  1  0     0  0
  2  9  1  0     0  0
  3 22  2  0     0  0
  4 10  1  0     0  0
  4 11  1  0     0  0
  4 12  1  0     0  0
  5 22  1  0     0  0
  5 23  1  0     0  0
  5 24  1  0     0  0
  6 25  1  0     0  0
  6 26  1  0     0  0
  6 27  1  0     0  0
  7 22  1  0     0  0
  7 28  1  0     0  0
  8 15  2  0     0  0
  8 16  1  0     0  0
  9 17  2  0     0  0
  9 18  1  0     0  0
 10 13  2  0     0  0
 10 19  1  0     0  0
 11 14  2  0     0  0
 12 20  2  0     0  0
 12 21  1  0     0  0
 13 14  1  0     0  0
 13 15  1  0     0  0
 14 29  1  0     0  0
 16 19  2  0     0  0
 17 20  1  0     0  0
 18 21  2  0     0  0
 23 25  1  0     0  0
 24 28  1  0     0  0
 26 30  1  0     0  0
 27 31  1  0     0  0
 29 30  1  0     0  0
 29 31  1  0     0  0
M  END
> <standard_type>
pIC50

> <# Confs.>
25

> <canonical_smiles>
FC1=CC=C(N2C=C(C3=C2C=CC(Cl)=C3)C4CCN(CCN5CCNC5=O)CC4)C=C1

> <standard_relation>
=

> <Publication_ID>
nan

> <predicted_activity_value>
nan

> <actual_activity_value>
1.853871964321762

> <Compound>
Sertindole

> <standard_units>
uM

> hash
1138031612468941526

$$$$
48
XXILIB    08252103503D 0   0.00000     0.00000

 31 35  0     1  0            999 V2000
   -5.8582    3.8621    4.6818 Cl  0  0  0  0  0  1           0  0  0
  -10.2391   -1.5585   -3.3771 F   0  0  0  0  0  1           0  0  0
    3.9694    2.3135   -1.4637 O   0  0  0  0  0  2           0  0  0
   -6.2491    0.5901   -0.2050 N   0  0  0  0  0  3           0  0  0
    3.5072   -0.0000   -1.4211 N   0  0  1  0  0  3           0  0  0
    0.0000    0.0000    0.0000 N   0  0  1  0  0  3           0  0  0
    5.6544    0.6872   -1.3833 N   0  0  0  0  0  3           0  0  0
   -6.0575    2.9060    3.2624 C   0  0  0  0  0  4           0  0  0
   -9.2703   -1.0346   -2.6130 C   0  0  0  0  0  4           0  0  0
   -6.3830    1.3620    0.9545 C   0  0  0  0  0  4           0  0  0
   -4.8990    0.4283   -0.4567 C   0  0  0  0  0  4           0  0  0
   -7.2637    0.0464   -1.0194 C   0  0  0  0  0  4           0  0  0
   -5.0883    1.6655    1.4092 C   0  0  0  0  0  4           0  0  0
   -4.1539    1.0714    0.5073 C   0  0  0  0  0  4           0  0  0
   -4.9306    2.4454    2.5796 C   0  0  0  0  0  4           0  0  0
   -7.3328    2.6055    2.8083 C   0  0  0  0  0  4           0  0  0
   -9.5038    0.1551   -1.9314 C   0  0  0  0  0  4           0  0  0
   -8.0475   -1.6902   -2.5134 C   0  0  0  0  0  4           0  0  0
   -7.5122    1.8332    1.6563 C   0  0  0  0  0  4           0  0  0
   -8.4992    0.7001   -1.1307 C   0  0  0  0  0  4           0  0  0
   -7.0383   -1.1501   -1.7150 C   0  0  0  0  0  4           0  0  0
    4.3256    1.1431   -1.4279 C   0  0  0  0  0  4           0  0  0
    2.0549    0.0000   -1.4093 C   0  0  0  0  0  4           0  0  0
    4.2866   -1.2103   -1.2523 C   0  0  0  0  0  4           0  0  0
    1.4659   -0.0000    0.0000 C   0  0  0  0  0  4           0  0  0
   -0.5400   -0.0000    1.3697 C   0  0  0  0  0  4           0  0  0
   -0.5033    1.1573   -0.7568 C   0  0  0  0  0  4           0  0  0
    5.7256   -0.7511   -1.4278 C   0  0  0  0  0  4           0  0  0
   -2.6620    1.1193    0.5613 C   0  0  1  0  0  4           0  0  0
   -2.0702   -0.0466    1.3651 C   0  0  0  0  0  4           0  0  0
   -2.0313    1.1504   -0.8376 C   0  0  0  0  0  4           0  0  0
  1  8  1  0     0  0
  2  9  1  0     0  0
  3 22  2  0     0  0
  4 10  1  0     0  0
  4 11  1  0     0  0
  4 12  1  0     0  0
  5 22  1  0     0  0
  5 23  1  0     0  0
  5 24  1  0     0  0
  6 25  1  0     0  0
  6 26  1  0     0  0
  6 27  1  0     0  0
  7 22  1  0     0  0
  7 28  1  0     0  0
  8 15  2  0     0  0
  8 16  1  0     0  0
  9 17  2  0     0  0
  9 18  1  0     0  0
 10 13  2  0     0  0
 10 19  1  0     0  0
 11 14  2  0     0  0
 12 20  2  0     0  0
 12 21  1  0     0  0
 13 14  1  0     0  0
 13 15  1  0     0  0
 14 29  1  0     0  0
 16 19  2  0     0  0
 17 20  1  0     0  0
 18 21  2  0     0  0
 23 25  1  0     0  0
 24 28  1  0     0  0
 26 30  1  0     0  0
 27 31  1  0     0  0
 29 30  1  0     0  0
 29 31  1  0     0  0
M  END
> <standard_type>
pIC50

> <# Confs.>
25

> <canonical_smiles>
FC1=CC=C(N2C=C(C3=C2C=CC(Cl)=C3)C4CCN(CCN5CCNC5=O)CC4)C=C1

> <standard_relation>
=

> <Publication_ID>
nan

> <predicted_activity_value>
nan

> <actual_activity_value>
1.853871964321762

> <Compound>
Sertindole

> <standard_units>
uM

> hash
1138031612468941526

$$$$
48
XXILIB    08252103503D 0   0.00000     0.00000

 31 35  0     1  0            999 V2000
   -5.8582    3.8621    4.6818 Cl  0  0  0  0  0  1           0  0  0
  -10.2399   -1.5156   -3.4048 F   0  0  0  0  0  1           0  0  0
    3.9771    0.7425    1.9156 O   0  0  0  0  0  2           0  0  0
   -6.2491    0.5901   -0.2050 N   0  0  0  0  0  3           0  0  0
    3.5072   -1.2308    0.7106 N   0  0  1  0  0  3           0  0  0
    0.0000    0.0000    0.0000 N   0  0  1  0  0  3           0  0  0
    5.6551   -0.6082    0.9949 N   0  0  0  0  0  3           0  0  0
   -6.0575    2.9060    3.2624 C   0  0  0  0  0  4           0  0  0
   -9.2706   -1.0108   -2.6285 C   0  0  0  0  0  4           0  0  0
   -6.3830    1.3620    0.9545 C   0  0  0  0  0  4           0  0  0
   -4.8990    0.4283   -0.4567 C   0  0  0  0  0  4           0  0  0
   -7.2637    0.0464   -1.0194 C   0  0  0  0  0  4           0  0  0
   -5.0883    1.6655    1.4092 C   0  0  0  0  0  4           0  0  0
   -4.1539    1.0714    0.5073 C   0  0  0  0  0  4           0  0  0
   -4.9306    2.4454    2.5796 C   0  0  0  0  0  4           0  0  0
   -7.3328    2.6055    2.8083 C   0  0  0  0  0  4           0  0  0
   -8.0477   -0.6682   -3.1957 C   0  0  0  0  0  4           0  0  0
   -9.5043   -0.8366   -1.2683 C   0  0  0  0  0  4           0  0  0
   -7.5122    1.8332    1.6563 C   0  0  0  0  0  4           0  0  0
   -7.0386   -0.1373   -2.3912 C   0  0  0  0  0  4           0  0  0
   -8.4992   -0.3068   -0.4581 C   0  0  0  0  0  4           0  0  0
    4.3291   -0.2463    1.2856 C   0  0  0  0  0  4           0  0  0
    2.0549   -1.2204    0.7046 C   0  0  0  0  0  4           0  0  0
    4.2800   -2.1962   -0.0452 C   0  0  0  0  0  4           0  0  0
    1.4659   -0.0000   -0.0000 C   0  0  0  0  0  4           0  0  0
   -0.5400   -0.0000    1.3697 C   0  0  0  0  0  4           0  0  0
   -0.5033    1.1573   -0.7568 C   0  0  0  0  0  4           0  0  0
    5.7254   -1.8629    0.2902 C   0  0  0  0  0  4           0  0  0
   -2.6620    1.1193    0.5613 C   0  0  1  0  0  4           0  0  0
   -2.0702   -0.0466    1.3651 C   0  0  0  0  0  4           0  0  0
   -2.0313    1.1504   -0.8376 C   0  0  0  0  0  4           0  0  0
  1  8  1  0     0  0
  2  9  1  0     0  0
  3 22  2  0     0  0
  4 10  1  0     0  0
  4 11  1  0     0  0
  4 12  1  0     0  0
  5 22  1  0     0  0
  5 23  1  0     0  0
  5 24  1  0     0  0
  6 25  1  0     0  0
  6 26  1  0     0  0
  6 27  1  0     0  0
  7 22  1  0     0  0
  7 28  1  0     0  0
  8 15  2  0     0  0
  8 16  1  0     0  0
  9 17  2  0     0  0
  9 18  1  0     0  0
 10 13  2  0     0  0
 10 19  1  0     0  0
 11 14  2  0     0  0
 12 20  2  0     0  0
 12 21  1  0     0  0
 13 14  1  0     0  0
 13 15  1  0     0  0
 14 29  1  0     0  0
 16 19  2  0     0  0
 17 20  1  0     0  0
 18 21  2  0     0  0
 23 25  1  0     0  0
 24 28  1  0     0  0
 26 30  1  0     0  0
 27 31  1  0     0  0
 29 30  1  0     0  0
 29 31  1  0     0  0
M  END
> <standard_type>
pIC50

> <# Confs.>
25

> <canonical_smiles>
FC1=CC=C(N2C=C(C3=C2C=CC(Cl)=C3)C4CCN(CCN5CCNC5=O)CC4)C=C1

> <standard_relation>
=

> <Publication_ID>
nan

> <predicted_activity_value>
nan

> <actual_activity_value>
1.853871964321762

> <Compound>
Sertindole

> <standard_units>
uM

> hash
1138031612468941526

$$$$
48
XXILIB    08252103503D 0   0.00000     0.00000

 31 35  0     1  0            999 V2000
   -5.8582    3.8621    4.6818 Cl  0  0  0  0  0  1           0  0  0
  -10.2391   -1.5585   -3.3771 F   0  0  0  0  0  1           0  0  0
    3.9694   -2.4244   -1.2717 O   0  0  0  0  0  2           0  0  0
   -6.2491    0.5901   -0.2050 N   0  0  0  0  0  3           0  0  0
    3.5072   -1.2308    0.7106 N   0  0  1  0  0  3           0  0  0
    0.0000    0.0000    0.0000 N   0  0  1  0  0  3           0  0  0
    5.6544   -1.5416    0.0965 N   0  0  0  0  0  3           0  0  0
   -6.0575    2.9060    3.2624 C   0  0  0  0  0  4           0  0  0
   -9.2703   -1.0346   -2.6130 C   0  0  0  0  0  4           0  0  0
   -6.3830    1.3620    0.9545 C   0  0  0  0  0  4           0  0  0
   -4.8990    0.4283   -0.4567 C   0  0  0  0  0  4           0  0  0
   -7.2637    0.0464   -1.0194 C   0  0  0  0  0  4           0  0  0
   -5.0883    1.6655    1.4092 C   0  0  0  0  0  4           0  0  0
   -4.1539    1.0714    0.5073 C   0  0  0  0  0  4           0  0  0
   -4.9306    2.4454    2.5796 C   0  0  0  0  0  4           0  0  0
   -7.3328    2.6055    2.8083 C   0  0  0  0  0  4           0  0  0
   -9.5038    0.1551   -1.9314 C   0  0  0  0  0  4           0  0  0
   -8.0475   -1.6902   -2.5134 C   0  0  0  0  0  4           0  0  0
   -7.5122    1.8332    1.6563 C   0  0  0  0  0  4           0  0  0
   -8.4992    0.7001   -1.1307 C   0  0  0  0  0  4           0  0  0
   -7.0383   -1.1501   -1.7150 C   0  0  0  0  0  4           0  0  0
    4.3256   -1.8081   -0.2760 C   0  0  0  0  0  4           0  0  0
    2.0549   -1.2204    0.7046 C   0  0  0  0  0  4           0  0  0
    4.2866   -0.4794    1.6743 C   0  0  0  0  0  4           0  0  0
    1.4659    0.0000    0.0000 C   0  0  0  0  0  4           0  0  0
   -0.5400   -0.0000    1.3697 C   0  0  0  0  0  4           0  0  0
   -0.5033    1.1573   -0.7568 C   0  0  0  0  0  4           0  0  0
    5.7256   -0.8610    1.3644 C   0  0  0  0  0  4           0  0  0
   -2.6620    1.1193    0.5613 C   0  0  1  0  0  4           0  0  0
   -2.0702   -0.0466    1.3651 C   0  0  0  0  0  4           0  0  0
   -2.0313    1.1504   -0.8376 C   0  0  0  0  0  4           0  0  0
  1  8  1  0     0  0
  2  9  1  0     0  0
  3 22  2  0     0  0
  4 10  1  0     0  0
  4 11  1  0     0  0
  4 12  1  0     0  0
  5 22  1  0     0  0
  5 23  1  0     0  0
  5 24  1  0     0  0
  6 25  1  0     0  0
  6 26  1  0     0  0
  6 27  1  0     0  0
  7 22  1  0     0  0
  7 28  1  0     0  0
  8 15  2  0     0  0
  8 16  1  0     0  0
  9 17  2  0     0  0
  9 18  1  0     0  0
 10 13  2  0     0  0
 10 19  1  0     0  0
 11 14  2  0     0  0
 12 20  2  0     0  0
 12 21  1  0     0  0
 13 14  1  0     0  0
 13 15  1  0     0  0
 14 29  1  0     0  0
 16 19  2  0     0  0
 17 20  1  0     0  0
 18 21  2  0     0  0
 23 25  1  0     0  0
 24 28  1  0     0  0
 26 30  1  0     0  0
 27 31  1  0     0  0
 29 30  1  0     0  0
 29 31  1  0     0  0
M  END
> <standard_type>
pIC50

> <# Confs.>
25

> <canonical_smiles>
FC1=CC=C(N2C=C(C3=C2C=CC(Cl)=C3)C4CCN(CCN5CCNC5=O)CC4)C=C1

> <standard_relation>
=

> <Publication_ID>
nan

> <predicted_activity_value>
nan

> <actual_activity_value>
1.853871964321762

> <Compound>
Sertindole

> <standard_units>
uM

> hash
1138031612468941526

$$$$
48
XXILIB    08252103503D 0   0.00000     0.00000

 31 35  0     1  0            999 V2000
   -5.6683   -5.8462    2.6058 Cl  0  0  0  0  0  1           0  0  0
    4.3529   -8.7438    4.7739 F   0  0  0  0  0  1           0  0  0
    3.9694    0.1108    2.7354 O   0  0  0  0  0  2           0  0  0
    0.2131   -5.5921    2.8957 N   0  0  0  0  0  3           0  0  0
    3.5072    1.2308    0.7106 N   0  0  1  0  0  3           0  0  0
    0.0000    0.0000    0.0000 N   0  0  1  0  0  3           0  0  0
    5.6544    0.8544    1.2868 N   0  0  0  0  0  3           0  0  0
   -3.9501   -5.8463    2.7327 C   0  0  0  0  0  4           0  0  0
    3.3519   -7.9805    4.3132 C   0  0  0  0  0  4           0  0  0
   -1.1614   -5.8523    2.9316 C   0  0  0  0  0  4           0  0  0
    0.3991   -4.3616    2.2926 C   0  0  0  0  0  4           0  0  0
    1.2712   -6.3960    3.3675 C   0  0  0  0  0  4           0  0  0
   -1.8124   -4.7550    2.3425 C   0  0  0  0  0  4           0  0  0
   -0.8153   -3.8159    1.9384 C   0  0  0  0  0  4           0  0  0
   -3.2245   -4.7572    2.2472 C   0  0  0  0  0  4           0  0  0
   -3.3026   -6.9275    3.3112 C   0  0  0  0  0  4           0  0  0
    2.1881   -8.5844    3.8488 C   0  0  0  0  0  4           0  0  0
    3.4930   -6.5966    4.3085 C   0  0  0  0  0  4           0  0  0
   -1.9085   -6.9449    3.4192 C   0  0  0  0  0  4           0  0  0
    1.1421   -7.7922    3.3738 C   0  0  0  0  0  4           0  0  0
    2.4510   -5.7987    3.8340 C   0  0  0  0  0  4           0  0  0
    4.3256    0.6650    1.7039 C   0  0  0  0  0  4           0  0  0
    2.0549    1.2204    0.7046 C   0  0  0  0  0  4           0  0  0
    4.2866    1.6897   -0.4220 C   0  0  0  0  0  4           0  0  0
    1.4659   -0.0000   -0.0000 C   0  0  0  0  0  4           0  0  0
   -0.5866    0.0000    1.3490 C   0  0  0  0  0  4           0  0  0
   -0.5493   -1.1026   -0.8021 C   0  0  0  0  0  4           0  0  0
    5.7256    1.6121    0.0635 C   0  0  0  0  0  4           0  0  0
   -1.0094   -2.4990    1.2610 C   0  0  1  0  0  4           0  0  0
   -0.4512   -1.3334    2.0920 C   0  0  0  0  0  4           0  0  0
   -0.4036   -2.4813   -0.1509 C   0  0  0  0  0  4           0  0  0
  1  8  1  0     0  0
  2  9  1  0     0  0
  3 22  2  0     0  0
  4 10  1  0     0  0
  4 11  1  0     0  0
  4 12  1  0     0  0
  5 22  1  0     0  0
  5 23  1  0     0  0
  5 24  1  0     0  0
  6 25  1  0     0  0
  6 26  1  0     0  0
  6 27  1  0     0  0
  7 22  1  0     0  0
  7 28  1  0     0  0
  8 15  2  0     0  0
  8 16  1  0     0  0
  9 17  2  0     0  0
  9 18  1  0     0  0
 10 13  2  0     0  0
 10 19  1  0     0  0
 11 14  2  0     0  0
 12 20  2  0     0  0
 12 21  1  0     0  0
 13 14  1  0     0  0
 13 15  1  0     0  0
 14 29  1  0     0  0
 16 19  2  0     0  0
 17 20  1  0     0  0
 18 21  2  0     0  0
 23 25  1  0     0  0
 24 28  1  0     0  0
 26 30  1  0     0  0
 27 31  1  0     0  0
 29 30  1  0     0  0
 29 31  1  0     0  0
M  END
> <standard_type>
pIC50

> <# Confs.>
25

> <canonical_smiles>
FC1=CC=C(N2C=C(C3=C2C=CC(Cl)=C3)C4CCN(CCN5CCNC5=O)CC4)C=C1

> <standard_relation>
=

> <Publication_ID>
nan

> <predicted_activity_value>
nan

> <actual_activity_value>
1.853871964321762

> <Compound>
Sertindole

> <standard_units>
uM

> hash
1138031612468941526

$$$$
48
XXILIB    08252103503D 0   0.00000     0.00000

 31 35  0     1  0            999 V2000
   -5.7646    6.1078    0.1068 Cl  0  0  0  0  0  1           0  0  0
  -10.3188   -3.5139    0.5571 F   0  0  0  0  0  1           0  0  0
    3.9694    2.3135   -1.4637 O   0  0  0  0  0  2           0  0  0
   -6.2626    0.2461    0.4707 N   0  0  0  0  0  3           0  0  0
    3.5072   -0.0000   -1.4211 N   0  0  1  0  0  3           0  0  0
   -0.0000    0.0000    0.0000 N   0  0  1  0  0  3           0  0  0
    5.6544    0.6872   -1.3833 N   0  0  0  0  0  3           0  0  0
   -5.9951    4.4037    0.2135 C   0  0  0  0  0  4           0  0  0
   -9.3338   -2.6052    0.5311 C   0  0  0  0  0  4           0  0  0
   -6.3709    1.6381    0.3778 C   0  0  0  0  0  4           0  0  0
   -4.9192   -0.0735    0.5464 C   0  0  0  0  0  4           0  0  0
   -7.2938   -0.7155    0.4864 C   0  0  0  0  0  4           0  0  0
   -5.0678    2.1638    0.4024 C   0  0  0  0  0  4           0  0  0
   -4.1539    1.0714    0.5073 C   0  0  0  0  0  4           0  0  0
   -4.8847    3.5648    0.3214 C   0  0  0  0  0  4           0  0  0
   -7.2787    3.8797    0.1875 C   0  0  0  0  0  4           0  0  0
   -9.5173   -1.4161   -0.1667 C   0  0  0  0  0  4           0  0  0
   -8.1444   -2.8658    1.2038 C   0  0  0  0  0  4           0  0  0
   -7.4833    2.4988    0.2701 C   0  0  0  0  0  4           0  0  0
   -8.4958   -0.4657   -0.1910 C   0  0  0  0  0  4           0  0  0
   -7.1186   -1.9198    1.1829 C   0  0  0  0  0  4           0  0  0
    4.3256    1.1431   -1.4279 C   0  0  0  0  0  4           0  0  0
    2.0549    0.0000   -1.4093 C   0  0  0  0  0  4           0  0  0
    4.2866   -1.2103   -1.2523 C   0  0  0  0  0  4           0  0  0
    1.4659   -0.0000    0.0000 C   0  0  0  0  0  4           0  0  0
   -0.5400   -0.0000    1.3697 C   0  0  0  0  0  4           0  0  0
   -0.5033    1.1573   -0.7568 C   0  0  0  0  0  4           0  0  0
    5.7256   -0.7511   -1.4278 C   0  0  0  0  0  4           0  0  0
   -2.6620    1.1193    0.5613 C   0  0  1  0  0  4           0  0  0
   -2.0702   -0.0466    1.3651 C   0  0  0  0  0  4           0  0  0
   -2.0313    1.1504   -0.8376 C   0  0  0  0  0  4           0  0  0
  1  8  1  0     0  0
  2  9  1  0     0  0
  3 22  2  0     0  0
  4 10  1  0     0  0
  4 11  1  0     0  0
  4 12  1  0     0  0
  5 22  1  0     0  0
  5 23  1  0     0  0
  5 24  1  0     0  0
  6 25  1  0     0  0
  6 26  1  0     0  0
  6 27  1  0     0  0
  7 22  1  0     0  0
  7 28  1  0     0  0
  8 15  2  0     0  0
  8 16  1  0     0  0
  9 17  2  0     0  0
  9 18  1  0     0  0
 10 13  2  0     0  0
 10 19  1  0     0  0
 11 14  2  0     0  0
 12 20  2  0     0  0
 12 21  1  0     0  0
 13 14  1  0     0  0
 13 15  1  0     0  0
 14 29  1  0     0  0
 16 19  2  0     0  0
 17 20  1  0     0  0
 18 21  2  0     0  0
 23 25  1  0     0  0
 24 28  1  0     0  0
 26 30  1  0     0  0
 27 31  1  0     0  0
 29 30  1  0     0  0
 29 31  1  0     0  0
M  END
> <standard_type>
pIC50

> <# Confs.>
25

> <canonical_smiles>
FC1=CC=C(N2C=C(C3=C2C=CC(Cl)=C3)C4CCN(CCN5CCNC5=O)CC4)C=C1

> <standard_relation>
=

> <Publication_ID>
nan

> <predicted_activity_value>
nan

> <actual_activity_value>
1.853871964321762

> <Compound>
Sertindole

> <standard_units>
uM

> hash
1138031612468941526

$$$$
48
XXILIB    08252103503D 0   0.00000     0.00000

 31 35  0     1  0            999 V2000
   -5.3862   -3.5486   -1.7856 Cl  0  0  0  0  0  1           0  0  0
  -10.6476    4.7785    2.2752 F   0  0  0  0  0  1           0  0  0
    3.9694   -2.4244   -1.2717 O   0  0  0  0  0  2           0  0  0
   -6.3195    1.6784    0.7733 N   0  0  0  0  0  3           0  0  0
    3.5072   -1.2308    0.7106 N   0  0  1  0  0  3           0  0  0
    0.0000    0.0000    0.0000 N   0  0  1  0  0  3           0  0  0
    5.6544   -1.5416    0.0965 N   0  0  0  0  0  3           0  0  0
   -5.7428   -2.0321   -1.0497 C   0  0  0  0  0  4           0  0  0
   -9.5967    4.0317    1.9079 C   0  0  0  0  0  4           0  0  0
   -6.3238    0.4244    0.1523 C   0  0  0  0  0  4           0  0  0
   -5.0030    2.0484    0.9790 C   0  0  0  0  0  4           0  0  0
   -7.4203    2.4742    1.1517 C   0  0  0  0  0  4           0  0  0
   -4.9842    0.0368   -0.0216 C   0  0  0  0  0  4           0  0  0
   -4.1539    1.0714    0.5073 C   0  0  0  0  0  4           0  0  0
   -4.6970   -1.2069   -0.6331 C   0  0  0  0  0  4           0  0  0
   -7.0630   -1.6458   -0.8738 C   0  0  0  0  0  4           0  0  0
   -8.4122    4.1129    2.6324 C   0  0  0  0  0  4           0  0  0
   -9.7087    3.1866    0.8086 C   0  0  0  0  0  4           0  0  0
   -7.3699   -0.4197   -0.2756 C   0  0  0  0  0  4           0  0  0
   -7.3183    3.3326    2.2558 C   0  0  0  0  0  4           0  0  0
   -8.6182    2.4042    0.4263 C   0  0  0  0  0  4           0  0  0
    4.3256   -1.8081   -0.2760 C   0  0  0  0  0  4           0  0  0
    2.0549   -1.2204    0.7046 C   0  0  0  0  0  4           0  0  0
    4.2866   -0.4794    1.6743 C   0  0  0  0  0  4           0  0  0
    1.4659    0.0000    0.0000 C   0  0  0  0  0  4           0  0  0
   -0.5400    0.0000    1.3697 C   0  0  0  0  0  4           0  0  0
   -0.5033    1.1573   -0.7568 C   0  0  0  0  0  4           0  0  0
    5.7256   -0.8610    1.3644 C   0  0  0  0  0  4           0  0  0
   -2.6620    1.1193    0.5613 C   0  0  1  0  0  4           0  0  0
   -2.0702   -0.0466    1.3651 C   0  0  0  0  0  4           0  0  0
   -2.0313    1.1504   -0.8376 C   0  0  0  0  0  4           0  0  0
  1  8  1  0     0  0
  2  9  1  0     0  0
  3 22  2  0     0  0
  4 10  1  0     0  0
  4 11  1  0     0  0
  4 12  1  0     0  0
  5 22  1  0     0  0
  5 23  1  0     0  0
  5 24  1  0     0  0
  6 25  1  0     0  0
  6 26  1  0     0  0
  6 27  1  0     0  0
  7 22  1  0     0  0
  7 28  1  0     0  0
  8 15  2  0     0  0
  8 16  1  0     0  0
  9 17  2  0     0  0
  9 18  1  0     0  0
 10 13  2  0     0  0
 10 19  1  0     0  0
 11 14  2  0     0  0
 12 20  2  0     0  0
 12 21  1  0     0  0
 13 14  1  0     0  0
 13 15  1  0     0  0
 14 29  1  0     0  0
 16 19  2  0     0  0
 17 20  1  0     0  0
 18 21  2  0     0  0
 23 25  1  0     0  0
 24 28  1  0     0  0
 26 30  1  0     0  0
 27 31  1  0     0  0
 29 30  1  0     0  0
 29 31  1  0     0  0
M  END
> <standard_type>
pIC50

> <# Confs.>
25

> <canonical_smiles>
FC1=CC=C(N2C=C(C3=C2C=CC(Cl)=C3)C4CCN(CCN5CCNC5=O)CC4)C=C1

> <standard_relation>
=

> <Publication_ID>
nan

> <predicted_activity_value>
nan

> <actual_activity_value>
1.853871964321762

> <Compound>
Sertindole

> <standard_units>
uM

> hash
1138031612468941526

$$$$
48
XXILIB    08252103503D 0   0.00000     0.00000

 31 35  0     1  0            999 V2000
   -5.3862   -3.5486   -1.7856 Cl  0  0  0  0  0  1           0  0  0
  -10.6462    4.8019    2.2298 F   0  0  0  0  0  1           0  0  0
    3.9582   -1.2877    3.0257 O   0  0  0  0  0  2           0  0  0
   -6.3195    1.6784    0.7733 N   0  0  0  0  0  3           0  0  0
    3.5072   -1.2308    0.7106 N   0  0  1  0  0  3           0  0  0
    0.0000    0.0000    0.0000 N   0  0  1  0  0  3           0  0  0
    5.6494   -1.1657    1.4094 N   0  0  0  0  0  3           0  0  0
   -5.7428   -2.0321   -1.0497 C   0  0  0  0  0  4           0  0  0
   -9.5961    4.0446    1.8826 C   0  0  0  0  0  4           0  0  0
   -6.3238    0.4244    0.1523 C   0  0  0  0  0  4           0  0  0
   -5.0030    2.0484    0.9790 C   0  0  0  0  0  4           0  0  0
   -7.4203    2.4742    1.1517 C   0  0  0  0  0  4           0  0  0
   -4.9842    0.0368   -0.0216 C   0  0  0  0  0  4           0  0  0
   -4.1539    1.0714    0.5073 C   0  0  0  0  0  4           0  0  0
   -4.6970   -1.2069   -0.6331 C   0  0  0  0  0  4           0  0  0
   -7.0630   -1.6458   -0.8738 C   0  0  0  0  0  4           0  0  0
   -9.7222    2.6594    1.8786 C   0  0  0  0  0  4           0  0  0
   -8.3976    4.6567    1.5305 C   0  0  0  0  0  4           0  0  0
   -7.3699   -0.4197   -0.2756 C   0  0  0  0  0  4           0  0  0
   -8.6324    1.8685    1.5122 C   0  0  0  0  0  4           0  0  0
   -7.3037    3.8715    1.1638 C   0  0  0  0  0  4           0  0  0
    4.3197   -1.2365    1.8573 C   0  0  0  0  0  4           0  0  0
    2.0549   -1.2204    0.7046 C   0  0  0  0  0  4           0  0  0
    4.2899   -1.0590   -0.4971 C   0  0  0  0  0  4           0  0  0
    1.4659    0.0000   -0.0000 C   0  0  0  0  0  4           0  0  0
   -0.5400    0.0000    1.3697 C   0  0  0  0  0  4           0  0  0
   -0.5033    1.1573   -0.7568 C   0  0  0  0  0  4           0  0  0
    5.7315   -1.1827   -0.0289 C   0  0  0  0  0  4           0  0  0
   -2.6620    1.1193    0.5613 C   0  0  1  0  0  4           0  0  0
   -2.0702   -0.0466    1.3651 C   0  0  0  0  0  4           0  0  0
   -2.0313    1.1504   -0.8376 C   0  0  0  0  0  4           0  0  0
  1  8  1  0     0  0
  2  9  1  0     0  0
  3 22  2  0     0  0
  4 10  1  0     0  0
  4 11  1  0     0  0
  4 12  1  0     0  0
  5 22  1  0     0  0
  5 23  1  0     0  0
  5 24  1  0     0  0
  6 25  1  0     0  0
  6 26  1  0     0  0
  6 27  1  0     0  0
  7 22  1  0     0  0
  7 28  1  0     0  0
  8 15  2  0     0  0
  8 16  1  0     0  0
  9 17  2  0     0  0
  9 18  1  0     0  0
 10 13  2  0     0  0
 10 19  1  0     0  0
 11 14  2  0     0  0
 12 20  2  0     0  0
 12 21  1  0     0  0
 13 14  1  0     0  0
 13 15  1  0     0  0
 14 29  1  0     0  0
 16 19  2  0     0  0
 17 20  1  0     0  0
 18 21  2  0     0  0
 23 25  1  0     0  0
 24 28  1  0     0  0
 26 30  1  0     0  0
 27 31  1  0     0  0
 29 30  1  0     0  0
 29 31  1  0     0  0
M  END
> <standard_type>
pIC50

> <# Confs.>
25

> <canonical_smiles>
FC1=CC=C(N2C=C(C3=C2C=CC(Cl)=C3)C4CCN(CCN5CCNC5=O)CC4)C=C1

> <standard_relation>
=

> <Publication_ID>
nan

> <predicted_activity_value>
nan

> <actual_activity_value>
1.853871964321762

> <Compound>
Sertindole

> <standard_units>
uM

> hash
1138031612468941526

$$$$
48
XXILIB    08252103503D 0   0.00000     0.00000

 31 35  0     1  0            999 V2000
   -5.7646    6.1078    0.1068 Cl  0  0  0  0  0  1           0  0  0
  -10.3188   -3.5139    0.5571 F   0  0  0  0  0  1           0  0  0
    3.9694   -2.4244   -1.2717 O   0  0  0  0  0  2           0  0  0
   -6.2626    0.2461    0.4707 N   0  0  0  0  0  3           0  0  0
    3.5072   -1.2308    0.7106 N   0  0  1  0  0  3           0  0  0
   -0.0000    0.0000    0.0000 N   0  0  1  0  0  3           0  0  0
    5.6544   -1.5416    0.0965 N   0  0  0  0  0  3           0  0  0
   -5.9951    4.4037    0.2135 C   0  0  0  0  0  4           0  0  0
   -9.3338   -2.6052    0.5311 C   0  0  0  0  0  4           0  0  0
   -6.3709    1.6381    0.3778 C   0  0  0  0  0  4           0  0  0
   -4.9192   -0.0735    0.5464 C   0  0  0  0  0  4           0  0  0
   -7.2938   -0.7155    0.4864 C   0  0  0  0  0  4           0  0  0
   -5.0678    2.1638    0.4024 C   0  0  0  0  0  4           0  0  0
   -4.1539    1.0714    0.5073 C   0  0  0  0  0  4           0  0  0
   -4.8847    3.5648    0.3214 C   0  0  0  0  0  4           0  0  0
   -7.2787    3.8797    0.1875 C   0  0  0  0  0  4           0  0  0
   -9.5173   -1.4161   -0.1667 C   0  0  0  0  0  4           0  0  0
   -8.1444   -2.8658    1.2038 C   0  0  0  0  0  4           0  0  0
   -7.4833    2.4988    0.2701 C   0  0  0  0  0  4           0  0  0
   -8.4958   -0.4657   -0.1910 C   0  0  0  0  0  4           0  0  0
   -7.1186   -1.9198    1.1829 C   0  0  0  0  0  4           0  0  0
    4.3256   -1.8081   -0.2760 C   0  0  0  0  0  4           0  0  0
    2.0549   -1.2204    0.7046 C   0  0  0  0  0  4           0  0  0
    4.2866   -0.4794    1.6743 C   0  0  0  0  0  4           0  0  0
    1.4659    0.0000    0.0000 C   0  0  0  0  0  4           0  0  0
   -0.5400   -0.0000    1.3697 C   0  0  0  0  0  4           0  0  0
   -0.5033    1.1573   -0.7568 C   0  0  0  0  0  4           0  0  0
    5.7256   -0.8610    1.3644 C   0  0  0  0  0  4           0  0  0
   -2.6620    1.1193    0.5613 C   0  0  1  0  0  4           0  0  0
   -2.0702   -0.0466    1.3651 C   0  0  0  0  0  4           0  0  0
   -2.0313    1.1504   -0.8376 C   0  0  0  0  0  4           0  0  0
  1  8  1  0     0  0
  2  9  1  0     0  0
  3 22  2  0     0  0
  4 10  1  0     0  0
  4 11  1  0     0  0
  4 12  1  0     0  0
  5 22  1  0     0  0
  5 23  1  0     0  0
  5 24  1  0     0  0
  6 25  1  0     0  0
  6 26  1  0     0  0
  6 27  1  0     0  0
  7 22  1  0     0  0
  7 28  1  0     0  0
  8 15  2  0     0  0
  8 16  1  0     0  0
  9 17  2  0     0  0
  9 18  1  0     0  0
 10 13  2  0     0  0
 10 19  1  0     0  0
 11 14  2  0     0  0
 12 20  2  0     0  0
 12 21  1  0     0  0
 13 14  1  0     0  0
 13 15  1  0     0  0
 14 29  1  0     0  0
 16 19  2  0     0  0
 17 20  1  0     0  0
 18 21  2  0     0  0
 23 25  1  0     0  0
 24 28  1  0     0  0
 26 30  1  0     0  0
 27 31  1  0     0  0
 29 30  1  0     0  0
 29 31  1  0     0  0
M  END
> <standard_type>
pIC50

> <# Confs.>
25

> <canonical_smiles>
FC1=CC=C(N2C=C(C3=C2C=CC(Cl)=C3)C4CCN(CCN5CCNC5=O)CC4)C=C1

> <standard_relation>
=

> <Publication_ID>
nan

> <predicted_activity_value>
nan

> <actual_activity_value>
1.853871964321762

> <Compound>
Sertindole

> <standard_units>
uM

> hash
1138031612468941526

$$$$
48
XXILIB    08252103503D 0   0.00000     0.00000

 31 35  0     1  0            999 V2000
   -5.7646    6.1078    0.1068 Cl  0  0  0  0  0  1           0  0  0
  -10.3173   -3.5164    0.5061 F   0  0  0  0  0  1           0  0  0
    3.9582   -1.2877    3.0257 O   0  0  0  0  0  2           0  0  0
   -6.2626    0.2461    0.4707 N   0  0  0  0  0  3           0  0  0
    3.5072   -1.2308    0.7106 N   0  0  1  0  0  3           0  0  0
   -0.0000    0.0000    0.0000 N   0  0  1  0  0  3           0  0  0
    5.6494   -1.1657    1.4094 N   0  0  0  0  0  3           0  0  0
   -5.9951    4.4037    0.2135 C   0  0  0  0  0  4           0  0  0
   -9.3328   -2.6067    0.5028 C   0  0  0  0  0  4           0  0  0
   -6.3709    1.6381    0.3778 C   0  0  0  0  0  4           0  0  0
   -4.9192   -0.0735    0.5464 C   0  0  0  0  0  4           0  0  0
   -7.2938   -0.7155    0.4864 C   0  0  0  0  0  4           0  0  0
   -5.0678    2.1638    0.4024 C   0  0  0  0  0  4           0  0  0
   -4.1539    1.0714    0.5073 C   0  0  0  0  0  4           0  0  0
   -4.8847    3.5648    0.3214 C   0  0  0  0  0  4           0  0  0
   -7.2787    3.8797    0.1875 C   0  0  0  0  0  4           0  0  0
   -8.0896   -2.9449   -0.0213 C   0  0  0  0  0  4           0  0  0
   -9.5712   -1.3385    1.0224 C   0  0  0  0  0  4           0  0  0
   -7.4833    2.4988    0.2701 C   0  0  0  0  0  4           0  0  0
   -7.0644   -1.9983   -0.0312 C   0  0  0  0  0  4           0  0  0
   -8.5500   -0.3874    1.0162 C   0  0  0  0  0  4           0  0  0
    4.3197   -1.2365    1.8573 C   0  0  0  0  0  4           0  0  0
    2.0549   -1.2204    0.7046 C   0  0  0  0  0  4           0  0  0
    4.2899   -1.0590   -0.4971 C   0  0  0  0  0  4           0  0  0
    1.4659    0.0000   -0.0000 C   0  0  0  0  0  4           0  0  0
   -0.5400   -0.0000    1.3697 C   0  0  0  0  0  4           0  0  0
   -0.5033    1.1573   -0.7568 C   0  0  0  0  0  4           0  0  0
    5.7315   -1.1827   -0.0289 C   0  0  0  0  0  4           0  0  0
   -2.6620    1.1193    0.5613 C   0  0  1  0  0  4           0  0  0
   -2.0702   -0.0466    1.3651 C   0  0  0  0  0  4           0  0  0
   -2.0313    1.1504   -0.8376 C   0  0  0  0  0  4           0  0  0
  1  8  1  0     0  0
  2  9  1  0     0  0
  3 22  2  0     0  0
  4 10  1  0     0  0
  4 11  1  0     0  0
  4 12  1  0     0  0
  5 22  1  0     0  0
  5 23  1  0     0  0
  5 24  1  0     0  0
  6 25  1  0     0  0
  6 26  1  0     0  0
  6 27  1  0     0  0
  7 22  1  0     0  0
  7 28  1  0     0  0
  8 15  2  0     0  0
  8 16  1  0     0  0
  9 17  2  0     0  0
  9 18  1  0     0  0
 10 13  2  0     0  0
 10 19  1  0     0  0
 11 14  2  0     0  0
 12 20  2  0     0  0
 12 21  1  0     0  0
 13 14  1  0     0  0
 13 15  1  0     0  0
 14 29  1  0     0  0
 16 19  2  0     0  0
 17 20  1  0     0  0
 18 21  2  0     0  0
 23 25  1  0     0  0
 24 28  1  0     0  0
 26 30  1  0     0  0
 27 31  1  0     0  0
 29 30  1  0     0  0
 29 31  1  0     0  0
M  END
> <standard_type>
pIC50

> <# Confs.>
25

> <canonical_smiles>
FC1=CC=C(N2C=C(C3=C2C=CC(Cl)=C3)C4CCN(CCN5CCNC5=O)CC4)C=C1

> <standard_relation>
=

> <Publication_ID>
nan

> <predicted_activity_value>
nan

> <actual_activity_value>
1.853871964321762

> <Compound>
Sertindole

> <standard_units>
uM

> hash
1138031612468941526

$$$$
48
XXILIB    08252103503D 0   0.00000     0.00000

 31 35  0     1  0            999 V2000
   -5.8419    5.5976    2.6944 Cl  0  0  0  0  0  1           0  0  0
  -10.2526   -3.0631   -1.6713 F   0  0  0  0  0  1           0  0  0
    0.5064   -3.5103    1.8763 O   0  0  0  0  0  2           0  0  0
   -6.2513    0.3276    0.0869 N   0  0  0  0  0  3           0  0  0
    1.6592   -2.4779    0.0953 N   0  0  1  0  0  3           0  0  0
   -0.0000    0.0000    0.0000 N   0  0  1  0  0  3           0  0  0
    0.8514   -4.5635   -0.1876 N   0  0  0  0  0  3           0  0  0
   -6.0466    4.0631    1.9381 C   0  0  0  0  0  4           0  0  0
   -9.2809   -2.2409   -1.2508 C   0  0  0  0  0  4           0  0  0
   -6.3808    1.5773    0.7030 C   0  0  0  0  0  4           0  0  0
   -4.9024    0.0431   -0.0223 C   0  0  0  0  0  4           0  0  0
   -7.2686   -0.5362   -0.3683 C   0  0  0  0  0  4           0  0  0
   -5.0848    2.0495    0.9724 C   0  0  0  0  0  4           0  0  0
   -4.1539    1.0714    0.5073 C   0  0  0  0  0  4           0  0  0
   -4.9228    3.3075    1.6001 C   0  0  0  0  0  4           0  0  0
   -7.3232    3.5936    1.6682 C   0  0  0  0  0  4           0  0  0
   -9.4954   -0.8667   -1.2592 C   0  0  0  0  0  4           0  0  0
   -8.0743   -2.7759   -0.8117 C   0  0  0  0  0  4           0  0  0
   -7.5069    2.3517    1.0522 C   0  0  0  0  0  4           0  0  0
   -8.4878   -0.0085   -0.8169 C   0  0  0  0  0  4           0  0  0
   -7.0623   -1.9231   -0.3687 C   0  0  0  0  0  4           0  0  0
    0.9516   -3.5096    0.7360 C   0  0  0  0  0  4           0  0  0
    2.0549   -1.2204    0.7046 C   0  0  0  0  0  4           0  0  0
    2.1140   -2.8803   -1.2206 C   0  0  0  0  0  4           0  0  0
    1.4659   -0.0000    0.0000 C   0  0  0  0  0  4           0  0  0
   -0.5400    0.0000    1.3697 C   0  0  0  0  0  4           0  0  0
   -0.5033    1.1573   -0.7568 C   0  0  0  0  0  4           0  0  0
    1.4264   -4.2151   -1.4619 C   0  0  0  0  0  4           0  0  0
   -2.6620    1.1193    0.5613 C   0  0  1  0  0  4           0  0  0
   -2.0702   -0.0466    1.3651 C   0  0  0  0  0  4           0  0  0
   -2.0313    1.1504   -0.8376 C   0  0  0  0  0  4           0  0  0
  1  8  1  0     0  0
  2  9  1  0     0  0
  3 22  2  0     0  0
  4 10  1  0     0  0
  4 11  1  0     0  0
  4 12  1  0     0  0
  5 22  1  0     0  0
  5 23  1  0     0  0
  5 24  1  0     0  0
  6 25  1  0     0  0
  6 26  1  0     0  0
  6 27  1  0     0  0
  7 22  1  0     0  0
  7 28  1  0     0  0
  8 15  2  0     0  0
  8 16  1  0     0  0
  9 17  2  0     0  0
  9 18  1  0     0  0
 10 13  2  0     0  0
 10 19  1  0     0  0
 11 14  2  0     0  0
 12 20  2  0     0  0
 12 21  1  0     0  0
 13 14  1  0     0  0
 13 15  1  0     0  0
 14 29  1  0     0  0
 16 19  2  0     0  0
 17 20  1  0     0  0
 18 21  2  0     0  0
 23 25  1  0     0  0
 24 28  1  0     0  0
 26 30  1  0     0  0
 27 31  1  0     0  0
 29 30  1  0     0  0
 29 31  1  0     0  0
M  END
> <standard_type>
pIC50

> <# Confs.>
25

> <canonical_smiles>
FC1=CC=C(N2C=C(C3=C2C=CC(Cl)=C3)C4CCN(CCN5CCNC5=O)CC4)C=C1

> <standard_relation>
=

> <Publication_ID>
nan

> <predicted_activity_value>
nan

> <actual_activity_value>
1.853871964321762

> <Compound>
Sertindole

> <standard_units>
uM

> hash
1138031612468941526

$$$$
48
XXILIB    08252103503D 0   0.00000     0.00000

 31 35  0     1  0            999 V2000
   -5.8419    5.5976    2.6944 Cl  0  0  0  0  0  1           0  0  0
  -10.2521   -3.0397   -1.7168 F   0  0  0  0  0  1           0  0  0
    0.5991   -0.1255   -4.0321 O   0  0  0  0  0  2           0  0  0
   -6.2513    0.3276    0.0869 N   0  0  0  0  0  3           0  0  0
    1.6592   -1.1564   -2.1936 N   0  0  1  0  0  3           0  0  0
   -0.0000    0.0000    0.0000 N   0  0  1  0  0  3           0  0  0
    0.7128   -2.4514   -3.7777 N   0  0  0  0  0  3           0  0  0
   -6.0466    4.0631    1.9381 C   0  0  0  0  0  4           0  0  0
   -9.2806   -2.2280   -1.2761 C   0  0  0  0  0  4           0  0  0
   -6.3808    1.5773    0.7030 C   0  0  0  0  0  4           0  0  0
   -4.9024    0.0431   -0.0223 C   0  0  0  0  0  4           0  0  0
   -7.2686   -0.5362   -0.3683 C   0  0  0  0  0  4           0  0  0
   -5.0848    2.0495    0.9724 C   0  0  0  0  0  4           0  0  0
   -4.1539    1.0714    0.5073 C   0  0  0  0  0  4           0  0  0
   -4.9228    3.3075    1.6001 C   0  0  0  0  0  4           0  0  0
   -7.3232    3.5936    1.6682 C   0  0  0  0  0  4           0  0  0
   -8.0440   -2.2316   -1.9130 C   0  0  0  0  0  4           0  0  0
   -9.5255   -1.3944   -0.1898 C   0  0  0  0  0  4           0  0  0
   -7.5069    2.3517    1.0522 C   0  0  0  0  0  4           0  0  0
   -7.0324   -1.3838   -1.4601 C   0  0  0  0  0  4           0  0  0
   -8.5178   -0.5447    0.2685 C   0  0  0  0  0  4           0  0  0
    0.9516   -1.1174   -3.4074 C   0  0  0  0  0  4           0  0  0
    2.0549    0.0000   -1.4093 C   0  0  0  0  0  4           0  0  0
    1.8078   -2.5132   -1.7061 C   0  0  0  0  0  4           0  0  0
    1.4659    0.0000    0.0000 C   0  0  0  0  0  4           0  0  0
   -0.5400    0.0000    1.3697 C   0  0  0  0  0  4           0  0  0
   -0.5033    1.1573   -0.7568 C   0  0  0  0  0  4           0  0  0
    1.3162   -3.3793   -2.8554 C   0  0  0  0  0  4           0  0  0
   -2.6620    1.1193    0.5613 C   0  0  1  0  0  4           0  0  0
   -2.0702   -0.0466    1.3651 C   0  0  0  0  0  4           0  0  0
   -2.0313    1.1504   -0.8376 C   0  0  0  0  0  4           0  0  0
  1  8  1  0     0  0
  2  9  1  0     0  0
  3 22  2  0     0  0
  4 10  1  0     0  0
  4 11  1  0     0  0
  4 12  1  0     0  0
  5 22  1  0     0  0
  5 23  1  0     0  0
  5 24  1  0     0  0
  6 25  1  0     0  0
  6 26  1  0     0  0
  6 27  1  0     0  0
  7 22  1  0     0  0
  7 28  1  0     0  0
  8 15  2  0     0  0
  8 16  1  0     0  0
  9 17  2  0     0  0
  9 18  1  0     0  0
 10 13  2  0     0  0
 10 19  1  0     0  0
 11 14  2  0     0  0
 12 20  2  0     0  0
 12 21  1  0     0  0
 13 14  1  0     0  0
 13 15  1  0     0  0
 14 29  1  0     0  0
 16 19  2  0     0  0
 17 20  1  0     0  0
 18 21  2  0     0  0
 23 25  1  0     0  0
 24 28  1  0     0  0
 26 30  1  0     0  0
 27 31  1  0     0  0
 29 30  1  0     0  0
 29 31  1  0     0  0
M  END
> <standard_type>
pIC50

> <# Confs.>
25

> <canonical_smiles>
FC1=CC=C(N2C=C(C3=C2C=CC(Cl)=C3)C4CCN(CCN5CCNC5=O)CC4)C=C1

> <standard_relation>
=

> <Publication_ID>
nan

> <predicted_activity_value>
nan

> <actual_activity_value>
1.853871964321762

> <Compound>
Sertindole

> <standard_units>
uM

> hash
1138031612468941526

$$$$
48
XXILIB    08252103503D 0   0.00000     0.00000

 31 35  0     1  0            999 V2000
   -5.8419    5.5976    2.6944 Cl  0  0  0  0  0  1           0  0  0
  -10.2521   -3.0397   -1.7168 F   0  0  0  0  0  1           0  0  0
    3.4107   -2.8130   -1.4495 O   0  0  0  0  0  2           0  0  0
   -6.2513    0.3276    0.0869 N   0  0  0  0  0  3           0  0  0
    1.6592   -2.4779    0.0953 N   0  0  1  0  0  3           0  0  0
   -0.0000    0.0000    0.0000 N   0  0  1  0  0  3           0  0  0
    1.5831   -4.2677   -1.2732 N   0  0  0  0  0  3           0  0  0
   -6.0466    4.0631    1.9381 C   0  0  0  0  0  4           0  0  0
   -9.2806   -2.2280   -1.2761 C   0  0  0  0  0  4           0  0  0
   -6.3808    1.5773    0.7030 C   0  0  0  0  0  4           0  0  0
   -4.9024    0.0431   -0.0223 C   0  0  0  0  0  4           0  0  0
   -7.2686   -0.5362   -0.3683 C   0  0  0  0  0  4           0  0  0
   -5.0848    2.0495    0.9724 C   0  0  0  0  0  4           0  0  0
   -4.1539    1.0714    0.5073 C   0  0  0  0  0  4           0  0  0
   -4.9228    3.3075    1.6001 C   0  0  0  0  0  4           0  0  0
   -7.3232    3.5936    1.6682 C   0  0  0  0  0  4           0  0  0
   -8.0440   -2.2316   -1.9130 C   0  0  0  0  0  4           0  0  0
   -9.5255   -1.3944   -0.1898 C   0  0  0  0  0  4           0  0  0
   -7.5069    2.3517    1.0522 C   0  0  0  0  0  4           0  0  0
   -7.0324   -1.3838   -1.4601 C   0  0  0  0  0  4           0  0  0
   -8.5178   -0.5447    0.2685 C   0  0  0  0  0  4           0  0  0
    2.3500   -3.1407   -0.9336 C   0  0  0  0  0  4           0  0  0
    2.0549   -1.2204    0.7046 C   0  0  0  0  0  4           0  0  0
    0.3850   -3.1094    0.3753 C   0  0  0  0  0  4           0  0  0
    1.4659    0.0000    0.0000 C   0  0  0  0  0  4           0  0  0
   -0.5400    0.0000    1.3697 C   0  0  0  0  0  4           0  0  0
   -0.5033    1.1573   -0.7568 C   0  0  0  0  0  4           0  0  0
    0.4216   -4.3985   -0.4308 C   0  0  0  0  0  4           0  0  0
   -2.6620    1.1193    0.5613 C   0  0  1  0  0  4           0  0  0
   -2.0702   -0.0466    1.3651 C   0  0  0  0  0  4           0  0  0
   -2.0313    1.1504   -0.8376 C   0  0  0  0  0  4           0  0  0
  1  8  1  0     0  0
  2  9  1  0     0  0
  3 22  2  0     0  0
  4 10  1  0     0  0
  4 11  1  0     0  0
  4 12  1  0     0  0
  5 22  1  0     0  0
  5 23  1  0     0  0
  5 24  1  0     0  0
  6 25  1  0     0  0
  6 26  1  0     0  0
  6 27  1  0     0  0
  7 22  1  0     0  0
  7 28  1  0     0  0
  8 15  2  0     0  0
  8 16  1  0     0  0
  9 17  2  0     0  0
  9 18  1  0     0  0
 10 13  2  0     0  0
 10 19  1  0     0  0
 11 14  2  0     0  0
 12 20  2  0     0  0
 12 21  1  0     0  0
 13 14  1  0     0  0
 13 15  1  0     0  0
 14 29  1  0     0  0
 16 19  2  0     0  0
 17 20  1  0     0  0
 18 21  2  0     0  0
 23 25  1  0     0  0
 24 28  1  0     0  0
 26 30  1  0     0  0
 27 31  1  0     0  0
 29 30  1  0     0  0
 29 31  1  0     0  0
M  END
> <standard_type>
pIC50

> <# Confs.>
25

> <canonical_smiles>
FC1=CC=C(N2C=C(C3=C2C=CC(Cl)=C3)C4CCN(CCN5CCNC5=O)CC4)C=C1

> <standard_relation>
=

> <Publication_ID>
nan

> <predicted_activity_value>
nan

> <actual_activity_value>
1.853871964321762

> <Compound>
Sertindole

> <standard_units>
uM

> hash
1138031612468941526

$$$$
48
XXILIB    08252103503D 0   0.00000     0.00000

 31 35  0     1  0            999 V2000
   -5.8419    5.5976    2.6944 Cl  0  0  0  0  0  1           0  0  0
  -10.2521   -3.0397   -1.7168 F   0  0  0  0  0  1           0  0  0
    3.9676   -2.3133   -1.4786 O   0  0  0  0  0  2           0  0  0
   -6.2513    0.3276    0.0869 N   0  0  0  0  0  3           0  0  0
    3.5072   -0.0000   -1.4211 N   0  0  1  0  0  3           0  0  0
   -0.0000    0.0000    0.0000 N   0  0  1  0  0  3           0  0  0
    5.6523   -0.6901   -1.3584 N   0  0  0  0  0  3           0  0  0
   -6.0466    4.0631    1.9381 C   0  0  0  0  0  4           0  0  0
   -9.2806   -2.2280   -1.2761 C   0  0  0  0  0  4           0  0  0
   -6.3808    1.5773    0.7030 C   0  0  0  0  0  4           0  0  0
   -4.9024    0.0431   -0.0223 C   0  0  0  0  0  4           0  0  0
   -7.2686   -0.5362   -0.3683 C   0  0  0  0  0  4           0  0  0
   -5.0848    2.0495    0.9724 C   0  0  0  0  0  4           0  0  0
   -4.1539    1.0714    0.5073 C   0  0  0  0  0  4           0  0  0
   -4.9228    3.3075    1.6001 C   0  0  0  0  0  4           0  0  0
   -7.3232    3.5936    1.6682 C   0  0  0  0  0  4           0  0  0
   -8.0440   -2.2316   -1.9130 C   0  0  0  0  0  4           0  0  0
   -9.5255   -1.3944   -0.1898 C   0  0  0  0  0  4           0  0  0
   -7.5069    2.3517    1.0522 C   0  0  0  0  0  4           0  0  0
   -7.0324   -1.3838   -1.4601 C   0  0  0  0  0  4           0  0  0
   -8.5178   -0.5447    0.2685 C   0  0  0  0  0  4           0  0  0
    4.3244   -1.1434   -1.4278 C   0  0  0  0  0  4           0  0  0
    2.0549    0.0000   -1.4093 C   0  0  0  0  0  4           0  0  0
    4.2851    1.2108   -1.2502 C   0  0  0  0  0  4           0  0  0
    1.4659   -0.0000    0.0000 C   0  0  0  0  0  4           0  0  0
   -0.5400    0.0000    1.3697 C   0  0  0  0  0  4           0  0  0
   -0.5033    1.1573   -0.7568 C   0  0  0  0  0  4           0  0  0
    5.7285    0.7486   -1.3756 C   0  0  0  0  0  4           0  0  0
   -2.6620    1.1193    0.5613 C   0  0  1  0  0  4           0  0  0
   -2.0702   -0.0466    1.3651 C   0  0  0  0  0  4           0  0  0
   -2.0313    1.1504   -0.8376 C   0  0  0  0  0  4           0  0  0
  1  8  1  0     0  0
  2  9  1  0     0  0
  3 22  2  0     0  0
  4 10  1  0     0  0
  4 11  1  0     0  0
  4 12  1  0     0  0
  5 22  1  0     0  0
  5 23  1  0     0  0
  5 24  1  0     0  0
  6 25  1  0     0  0
  6 26  1  0     0  0
  6 27  1  0     0  0
  7 22  1  0     0  0
  7 28  1  0     0  0
  8 15  2  0     0  0
  8 16  1  0     0  0
  9 17  2  0     0  0
  9 18  1  0     0  0
 10 13  2  0     0  0
 10 19  1  0     0  0
 11 14  2  0     0  0
 12 20  2  0     0  0
 12 21  1  0     0  0
 13 14  1  0     0  0
 13 15  1  0     0  0
 14 29  1  0     0  0
 16 19  2  0     0  0
 17 20  1  0     0  0
 18 21  2  0     0  0
 23 25  1  0     0  0
 24 28  1  0     0  0
 26 30  1  0     0  0
 27 31  1  0     0  0
 29 30  1  0     0  0
 29 31  1  0     0  0
M  END
> <standard_type>
pIC50

> <# Confs.>
25

> <canonical_smiles>
FC1=CC=C(N2C=C(C3=C2C=CC(Cl)=C3)C4CCN(CCN5CCNC5=O)CC4)C=C1

> <standard_relation>
=

> <Publication_ID>
nan

> <predicted_activity_value>
nan

> <actual_activity_value>
1.853871964321762

> <Compound>
Sertindole

> <standard_units>
uM

> hash
1138031612468941526

$$$$
48
XXILIB    08252103503D 0   0.00000     0.00000

 31 35  0     1  0            999 V2000
   -5.3862   -3.5486   -1.7856 Cl  0  0  0  0  0  1           0  0  0
  -10.6462    4.8019    2.2298 F   0  0  0  0  0  1           0  0  0
    3.9789    2.0230   -0.3018 O   0  0  0  0  0  2           0  0  0
   -6.3195    1.6784    0.7733 N   0  0  0  0  0  3           0  0  0
    3.5072   -0.0000   -1.4211 N   0  0  1  0  0  3           0  0  0
    0.0000    0.0000    0.0000 N   0  0  1  0  0  3           0  0  0
    5.6571    0.5674   -1.0471 N   0  0  0  0  0  3           0  0  0
   -5.7428   -2.0321   -1.0497 C   0  0  0  0  0  4           0  0  0
   -9.5961    4.0446    1.8826 C   0  0  0  0  0  4           0  0  0
   -6.3238    0.4244    0.1523 C   0  0  0  0  0  4           0  0  0
   -5.0030    2.0484    0.9790 C   0  0  0  0  0  4           0  0  0
   -7.4203    2.4742    1.1517 C   0  0  0  0  0  4           0  0  0
   -4.9842    0.0368   -0.0216 C   0  0  0  0  0  4           0  0  0
   -4.1539    1.0714    0.5073 C   0  0  0  0  0  4           0  0  0
   -4.6970   -1.2069   -0.6331 C   0  0  0  0  0  4           0  0  0
   -7.0630   -1.6458   -0.8738 C   0  0  0  0  0  4           0  0  0
   -9.7222    2.6594    1.8786 C   0  0  0  0  0  4           0  0  0
   -8.3976    4.6567    1.5305 C   0  0  0  0  0  4           0  0  0
   -7.3699   -0.4197   -0.2756 C   0  0  0  0  0  4           0  0  0
   -8.6324    1.8685    1.5122 C   0  0  0  0  0  4           0  0  0
   -7.3037    3.8715    1.1638 C   0  0  0  0  0  4           0  0  0
    4.3303    0.9899   -0.8563 C   0  0  0  0  0  4           0  0  0
    2.0549    0.0000   -1.4093 C   0  0  0  0  0  4           0  0  0
    4.2815   -1.1358   -1.8809 C   0  0  0  0  0  4           0  0  0
    1.4659   -0.0000    0.0000 C   0  0  0  0  0  4           0  0  0
   -0.5400    0.0000    1.3697 C   0  0  0  0  0  4           0  0  0
   -0.5033    1.1573   -0.7568 C   0  0  0  0  0  4           0  0  0
    5.7225   -0.6562   -1.8049 C   0  0  0  0  0  4           0  0  0
   -2.6620    1.1193    0.5613 C   0  0  1  0  0  4           0  0  0
   -2.0702   -0.0466    1.3651 C   0  0  0  0  0  4           0  0  0
   -2.0313    1.1504   -0.8376 C   0  0  0  0  0  4           0  0  0
  1  8  1  0     0  0
  2  9  1  0     0  0
  3 22  2  0     0  0
  4 10  1  0     0  0
  4 11  1  0     0  0
  4 12  1  0     0  0
  5 22  1  0     0  0
  5 23  1  0     0  0
  5 24  1  0     0  0
  6 25  1  0     0  0
  6 26  1  0     0  0
  6 27  1  0     0  0
  7 22  1  0     0  0
  7 28  1  0     0  0
  8 15  2  0     0  0
  8 16  1  0     0  0
  9 17  2  0     0  0
  9 18  1  0     0  0
 10 13  2  0     0  0
 10 19  1  0     0  0
 11 14  2  0     0  0
 12 20  2  0     0  0
 12 21  1  0     0  0
 13 14  1  0     0  0
 13 15  1  0     0  0
 14 29  1  0     0  0
 16 19  2  0     0  0
 17 20  1  0     0  0
 18 21  2  0     0  0
 23 25  1  0     0  0
 24 28  1  0     0  0
 26 30  1  0     0  0
 27 31  1  0     0  0
 29 30  1  0     0  0
 29 31  1  0     0  0
M  END
> <standard_type>
pIC50

> <# Confs.>
25

> <canonical_smiles>
FC1=CC=C(N2C=C(C3=C2C=CC(Cl)=C3)C4CCN(CCN5CCNC5=O)CC4)C=C1

> <standard_relation>
=

> <Publication_ID>
nan

> <predicted_activity_value>
nan

> <actual_activity_value>
1.853871964321762

> <Compound>
Sertindole

> <standard_units>
uM

> hash
1138031612468941526

$$$$
48
XXILIB    08252103503D 0   0.00000     0.00000

 31 35  0     1  0            999 V2000
   -4.8265   -6.8908    0.3337 Cl  0  0  0  0  0  1           0  0  0
    3.6652   -7.8573    6.6953 F   0  0  0  0  0  1           0  0  0
    3.9694    0.1108    2.7354 O   0  0  0  0  0  2           0  0  0
    0.0933   -5.4352    3.2350 N   0  0  0  0  0  3           0  0  0
    3.5072    1.2308    0.7106 N   0  0  1  0  0  3           0  0  0
    0.0000    0.0000    0.0000 N   0  0  1  0  0  3           0  0  0
    5.6544    0.8544    1.2868 N   0  0  0  0  0  3           0  0  0
   -3.3894   -6.5427    1.2182 C   0  0  0  0  0  4           0  0  0
    2.7986   -7.2661    5.8608 C   0  0  0  0  0  4           0  0  0
   -1.0527   -5.9825    2.6473 C   0  0  0  0  0  4           0  0  0
    0.2180   -4.1306    2.7936 C   0  0  0  0  0  4           0  0  0
    1.0024   -6.0474    4.1223 C   0  0  0  0  0  4           0  0  0
   -1.6286   -4.9858    1.8413 C   0  0  0  0  0  4           0  0  0
   -0.8153   -3.8159    1.9384 C   0  0  0  0  0  4           0  0  0
   -2.8130   -5.2751    1.1225 C   0  0  0  0  0  4           0  0  0
   -2.8159   -7.5234    2.0133 C   0  0  0  0  0  4           0  0  0
    3.2465   -6.2663    5.0039 C   0  0  0  0  0  4           0  0  0
    1.4654   -7.6633    5.8647 C   0  0  0  0  0  4           0  0  0
   -1.6480   -7.2583    2.7353 C   0  0  0  0  0  4           0  0  0
    2.3479   -5.6529    4.1301 C   0  0  0  0  0  4           0  0  0
    0.5615   -7.0533    4.9939 C   0  0  0  0  0  4           0  0  0
    4.3256    0.6650    1.7039 C   0  0  0  0  0  4           0  0  0
    2.0549    1.2204    0.7046 C   0  0  0  0  0  4           0  0  0
    4.2866    1.6897   -0.4220 C   0  0  0  0  0  4           0  0  0
    1.4659   -0.0000   -0.0000 C   0  0  0  0  0  4           0  0  0
   -0.5866   -0.0000    1.3490 C   0  0  0  0  0  4           0  0  0
   -0.5493   -1.1026   -0.8021 C   0  0  0  0  0  4           0  0  0
    5.7256    1.6121    0.0635 C   0  0  0  0  0  4           0  0  0
   -1.0094   -2.4990    1.2610 C   0  0  1  0  0  4           0  0  0
   -0.4512   -1.3334    2.0920 C   0  0  0  0  0  4           0  0  0
   -0.4036   -2.4813   -0.1509 C   0  0  0  0  0  4           0  0  0
  1  8  1  0     0  0
  2  9  1  0     0  0
  3 22  2  0     0  0
  4 10  1  0     0  0
  4 11  1  0     0  0
  4 12  1  0     0  0
  5 22  1  0     0  0
  5 23  1  0     0  0
  5 24  1  0     0  0
  6 25  1  0     0  0
  6 26  1  0     0  0
  6 27  1  0     0  0
  7 22  1  0     0  0
  7 28  1  0     0  0
  8 15  2  0     0  0
  8 16  1  0     0  0
  9 17  2  0     0  0
  9 18  1  0     0  0
 10 13  2  0     0  0
 10 19  1  0     0  0
 11 14  2  0     0  0
 12 20  2  0     0  0
 12 21  1  0     0  0
 13 14  1  0     0  0
 13 15  1  0     0  0
 14 29  1  0     0  0
 16 19  2  0     0  0
 17 20  1  0     0  0
 18 21  2  0     0  0
 23 25  1  0     0  0
 24 28  1  0     0  0
 26 30  1  0     0  0
 27 31  1  0     0  0
 29 30  1  0     0  0
 29 31  1  0     0  0
M  END
> <standard_type>
pIC50

> <# Confs.>
25

> <canonical_smiles>
FC1=CC=C(N2C=C(C3=C2C=CC(Cl)=C3)C4CCN(CCN5CCNC5=O)CC4)C=C1

> <standard_relation>
=

> <Publication_ID>
nan

> <predicted_activity_value>
nan

> <actual_activity_value>
1.853871964321762

> <Compound>
Sertindole

> <standard_units>
uM

> hash
1138031612468941526

$$$$
48
XXILIB    08252103503D 0   0.00000     0.00000

 31 35  0     1  0            999 V2000
   -5.3862   -3.5486   -1.7856 Cl  0  0  0  0  0  1           0  0  0
  -10.6476    4.7785    2.2752 F   0  0  0  0  0  1           0  0  0
    0.5064   -3.5103    1.8763 O   0  0  0  0  0  2           0  0  0
   -6.3195    1.6784    0.7733 N   0  0  0  0  0  3           0  0  0
    1.6592   -2.4779    0.0953 N   0  0  1  0  0  3           0  0  0
    0.0000    0.0000    0.0000 N   0  0  1  0  0  3           0  0  0
    0.8514   -4.5635   -0.1876 N   0  0  0  0  0  3           0  0  0
   -5.7428   -2.0321   -1.0497 C   0  0  0  0  0  4           0  0  0
   -9.5967    4.0317    1.9079 C   0  0  0  0  0  4           0  0  0
   -6.3238    0.4244    0.1523 C   0  0  0  0  0  4           0  0  0
   -5.0030    2.0484    0.9790 C   0  0  0  0  0  4           0  0  0
   -7.4203    2.4742    1.1517 C   0  0  0  0  0  4           0  0  0
   -4.9842    0.0368   -0.0216 C   0  0  0  0  0  4           0  0  0
   -4.1539    1.0714    0.5073 C   0  0  0  0  0  4           0  0  0
   -4.6970   -1.2069   -0.6331 C   0  0  0  0  0  4           0  0  0
   -7.0630   -1.6458   -0.8738 C   0  0  0  0  0  4           0  0  0
   -8.4122    4.1129    2.6324 C   0  0  0  0  0  4           0  0  0
   -9.7087    3.1866    0.8086 C   0  0  0  0  0  4           0  0  0
   -7.3699   -0.4197   -0.2756 C   0  0  0  0  0  4           0  0  0
   -7.3183    3.3326    2.2558 C   0  0  0  0  0  4           0  0  0
   -8.6182    2.4042    0.4263 C   0  0  0  0  0  4           0  0  0
    0.9516   -3.5096    0.7360 C   0  0  0  0  0  4           0  0  0
    2.0549   -1.2204    0.7046 C   0  0  0  0  0  4           0  0  0
    2.1140   -2.8803   -1.2206 C   0  0  0  0  0  4           0  0  0
    1.4659   -0.0000    0.0000 C   0  0  0  0  0  4           0  0  0
   -0.5400    0.0000    1.3697 C   0  0  0  0  0  4           0  0  0
   -0.5033    1.1573   -0.7568 C   0  0  0  0  0  4           0  0  0
    1.4264   -4.2151   -1.4619 C   0  0  0  0  0  4           0  0  0
   -2.6620    1.1193    0.5613 C   0  0  1  0  0  4           0  0  0
   -2.0702   -0.0466    1.3651 C   0  0  0  0  0  4           0  0  0
   -2.0313    1.1504   -0.8376 C   0  0  0  0  0  4           0  0  0
  1  8  1  0     0  0
  2  9  1  0     0  0
  3 22  2  0     0  0
  4 10  1  0     0  0
  4 11  1  0     0  0
  4 12  1  0     0  0
  5 22  1  0     0  0
  5 23  1  0     0  0
  5 24  1  0     0  0
  6 25  1  0     0  0
  6 26  1  0     0  0
  6 27  1  0     0  0
  7 22  1  0     0  0
  7 28  1  0     0  0
  8 15  2  0     0  0
  8 16  1  0     0  0
  9 17  2  0     0  0
  9 18  1  0     0  0
 10 13  2  0     0  0
 10 19  1  0     0  0
 11 14  2  0     0  0
 12 20  2  0     0  0
 12 21  1  0     0  0
 13 14  1  0     0  0
 13 15  1  0     0  0
 14 29  1  0     0  0
 16 19  2  0     0  0
 17 20  1  0     0  0
 18 21  2  0     0  0
 23 25  1  0     0  0
 24 28  1  0     0  0
 26 30  1  0     0  0
 27 31  1  0     0  0
 29 30  1  0     0  0
 29 31  1  0     0  0
M  END
> <standard_type>
pIC50

> <# Confs.>
25

> <canonical_smiles>
FC1=CC=C(N2C=C(C3=C2C=CC(Cl)=C3)C4CCN(CCN5CCNC5=O)CC4)C=C1

> <standard_relation>
=

> <Publication_ID>
nan

> <predicted_activity_value>
nan

> <actual_activity_value>
1.853871964321762

> <Compound>
Sertindole

> <standard_units>
uM

> hash
1138031612468941526

$$$$
48
XXILIB    08252103503D 0   0.00000     0.00000

 31 35  0     1  0            999 V2000
   -5.3862   -3.5486   -1.7856 Cl  0  0  0  0  0  1           0  0  0
  -10.6476    4.7785    2.2752 F   0  0  0  0  0  1           0  0  0
    3.4107   -2.8130   -1.4495 O   0  0  0  0  0  2           0  0  0
   -6.3195    1.6784    0.7733 N   0  0  0  0  0  3           0  0  0
    1.6592   -2.4779    0.0953 N   0  0  1  0  0  3           0  0  0
    0.0000    0.0000    0.0000 N   0  0  1  0  0  3           0  0  0
    1.5831   -4.2677   -1.2732 N   0  0  0  0  0  3           0  0  0
   -5.7428   -2.0321   -1.0497 C   0  0  0  0  0  4           0  0  0
   -9.5967    4.0317    1.9079 C   0  0  0  0  0  4           0  0  0
   -6.3238    0.4244    0.1523 C   0  0  0  0  0  4           0  0  0
   -5.0030    2.0484    0.9790 C   0  0  0  0  0  4           0  0  0
   -7.4203    2.4742    1.1517 C   0  0  0  0  0  4           0  0  0
   -4.9842    0.0368   -0.0216 C   0  0  0  0  0  4           0  0  0
   -4.1539    1.0714    0.5073 C   0  0  0  0  0  4           0  0  0
   -4.6970   -1.2069   -0.6331 C   0  0  0  0  0  4           0  0  0
   -7.0630   -1.6458   -0.8738 C   0  0  0  0  0  4           0  0  0
   -8.4122    4.1129    2.6324 C   0  0  0  0  0  4           0  0  0
   -9.7087    3.1866    0.8086 C   0  0  0  0  0  4           0  0  0
   -7.3699   -0.4197   -0.2756 C   0  0  0  0  0  4           0  0  0
   -7.3183    3.3326    2.2558 C   0  0  0  0  0  4           0  0  0
   -8.6182    2.4042    0.4263 C   0  0  0  0  0  4           0  0  0
    2.3500   -3.1407   -0.9336 C   0  0  0  0  0  4           0  0  0
    2.0549   -1.2204    0.7046 C   0  0  0  0  0  4           0  0  0
    0.3850   -3.1094    0.3753 C   0  0  0  0  0  4           0  0  0
    1.4659    0.0000    0.0000 C   0  0  0  0  0  4           0  0  0
   -0.5400    0.0000    1.3697 C   0  0  0  0  0  4           0  0  0
   -0.5033    1.1573   -0.7568 C   0  0  0  0  0  4           0  0  0
    0.4216   -4.3985   -0.4308 C   0  0  0  0  0  4           0  0  0
   -2.6620    1.1193    0.5613 C   0  0  1  0  0  4           0  0  0
   -2.0702   -0.0466    1.3651 C   0  0  0  0  0  4           0  0  0
   -2.0313    1.1504   -0.8376 C   0  0  0  0  0  4           0  0  0
  1  8  1  0     0  0
  2  9  1  0     0  0
  3 22  2  0     0  0
  4 10  1  0     0  0
  4 11  1  0     0  0
  4 12  1  0     0  0
  5 22  1  0     0  0
  5 23  1  0     0  0
  5 24  1  0     0  0
  6 25  1  0     0  0
  6 26  1  0     0  0
  6 27  1  0     0  0
  7 22  1  0     0  0
  7 28  1  0     0  0
  8 15  2  0     0  0
  8 16  1  0     0  0
  9 17  2  0     0  0
  9 18  1  0     0  0
 10 13  2  0     0  0
 10 19  1  0     0  0
 11 14  2  0     0  0
 12 20  2  0     0  0
 12 21  1  0     0  0
 13 14  1  0     0  0
 13 15  1  0     0  0
 14 29  1  0     0  0
 16 19  2  0     0  0
 17 20  1  0     0  0
 18 21  2  0     0  0
 23 25  1  0     0  0
 24 28  1  0     0  0
 26 30  1  0     0  0
 27 31  1  0     0  0
 29 30  1  0     0  0
 29 31  1  0     0  0
M  END
> <standard_type>
pIC50

> <# Confs.>
25

> <canonical_smiles>
FC1=CC=C(N2C=C(C3=C2C=CC(Cl)=C3)C4CCN(CCN5CCNC5=O)CC4)C=C1

> <standard_relation>
=

> <Publication_ID>
nan

> <predicted_activity_value>
nan

> <actual_activity_value>
1.853871964321762

> <Compound>
Sertindole

> <standard_units>
uM

> hash
1138031612468941526

$$$$
51
XXILIB    08252103503D 0   0.00000     0.00000

 35 38  0     1  0            999 V2000
   -2.6137    0.1068    5.4395 O   0  0  0  0  0  2           0  0  0
    2.3977    3.6190    0.7991 O   0  0  0  0  0  2           0  0  0
   -0.6848    0.0000    1.2948 N   0  0  2  0  0  3           0  0  0
   -2.7250   -2.2629    5.5576 C   0  0  0  0  0  4           0  0  0
   -4.6788   -0.8781    4.7615 C   0  0  0  0  0  4           0  0  0
    2.1815    2.7050   -1.3651 C   0  0  0  0  0  4           0  0  0
    2.9404    2.9950   -4.0892 C   0  0  0  0  0  4           0  0  0
   -3.1147   -3.5486    5.1364 C   0  0  0  0  0  4           0  0  0
   -1.9703   -2.1633    6.7384 C   0  0  0  0  0  4           0  0  0
   -5.4396   -1.4262    3.7112 C   0  0  0  0  0  4           0  0  0
   -5.3604   -0.1479    5.7496 C   0  0  0  0  0  4           0  0  0
    1.2196    2.9039   -2.3611 C   0  0  0  0  0  4           0  0  0
    3.5280    2.6481   -1.7424 C   0  0  0  0  0  4           0  0  0
    1.5926    3.0428   -3.7031 C   0  0  0  0  0  4           0  0  0
    3.9002    2.7863   -3.0834 C   0  0  0  0  0  4           0  0  0
   -2.7478   -4.6886    5.8554 C   0  0  0  0  0  4           0  0  0
   -1.6016   -3.3051    7.4562 C   0  0  0  0  0  4           0  0  0
   -6.8265   -1.2676    3.6620 C   0  0  0  0  0  4           0  0  0
   -6.7490    0.0085    5.7006 C   0  0  0  0  0  4           0  0  0
   -1.9895   -4.5669    7.0152 C   0  0  0  0  0  4           0  0  0
   -7.4818   -0.5511    4.6582 C   0  0  0  0  0  4           0  0  0
   -3.1631   -1.0496    4.7676 C   0  0  1  0  0  4           0  0  0
    1.7646    2.5610    0.0755 C   0  0  1  0  0  4           0  0  0
   -0.3107   -1.1957    2.0641 C   0  0  0  0  0  4           0  0  0
   -2.1450    0.0729    1.1328 C   0  0  0  0  0  4           0  0  0
    0.0000    0.0000    0.0000 C   0  0  0  0  0  4           0  0  0
    3.3722    3.1326   -5.5323 C   0  0  2  0  0  4           0  0  0
   -2.4870   -1.0735    3.3738 C   0  0  2  0  0  4           0  0  0
    2.1490    1.2095    0.6983 C   0  0  0  0  0  4           0  0  0
   -0.9514   -1.1915    3.4547 C   0  0  0  0  0  4           0  0  0
   -2.8529    0.1329    2.4891 C   0  0  0  0  0  4           0  0  0
    1.5246   -0.0000    0.0000 C   0  0  0  0  0  4           0  0  0
    2.7301    1.9965   -6.3521 C   0  0  0  0  0  4           0  0  0
    4.9074    3.0435   -5.6798 C   0  0  0  0  0  4           0  0  0
    2.9275    4.4872   -6.1269 C   0  0  0  0  0  4           0  0  0
  1 22  1  0     0  0
  2 23  1  0     0  0
  3 24  1  0     0  0
  3 25  1  0     0  0
  3 26  1  0     0  0
  4  8  2  0     0  0
  4  9  1  0     0  0
  4 22  1  0     0  0
  5 10  2  0     0  0
  5 11  1  0     0  0
  5 22  1  0     0  0
  6 12  2  0     0  0
  6 13  1  0     0  0
  6 23  1  0     0  0
  7 14  2  0     0  0
  7 15  1  0     0  0
  7 27  1  0     0  0
  8 16  1  0     0  0
  9 17  2  0     0  0
 10 18  1  0     0  0
 11 19  2  0     0  0
 12 14  1  0     0  0
 13 15  2  0     0  0
 16 20  2  0     0  0
 17 20  1  0     0  0
 18 21  2  0     0  0
 19 21  1  0     0  0
 22 28  1  0     0  0
 23 29  1  0     0  0
 24 30  1  0     0  0
 25 31  1  0     0  0
 26 32  1  0     0  0
 27 33  1  0     0  0
 27 34  1  0     0  0
 27 35  1  0     0  0
 28 30  1  0     0  0
 28 31  1  0     0  0
 29 32  1  0     0  0
M  END
> <standard_type>
pIC50

> <# Confs.>
25

> <canonical_smiles>
CC(C)(C1=CC=C(C(CCCN2CCC(C(C3=CC=CC=C3)(O)C4=CC=CC=C4)CC2)O)C=C1)C

> <standard_relation>
=

> <Publication_ID>
nan

> <predicted_activity_value>
nan

> <actual_activity_value>
1.2518119729937995

> <Compound>
Terfenadine

> <standard_units>
uM

> hash
14314180081394431565

$$$$
51
XXILIB    08252103503D 0   0.00000     0.00000

 35 38  0     1  0            999 V2000
   -2.6137    0.1068    5.4395 O   0  0  0  0  0  2           0  0  0
    4.1646    2.3762    1.3719 O   0  0  0  0  0  2           0  0  0
   -0.6848    0.0000    1.2948 N   0  0  2  0  0  3           0  0  0
   -2.7250   -2.2629    5.5576 C   0  0  0  0  0  4           0  0  0
   -4.6788   -0.8781    4.7615 C   0  0  0  0  0  4           0  0  0
    4.2921    0.0206    1.3974 C   0  0  0  0  0  4           0  0  0
    5.4612   -2.2227    2.6943 C   0  0  0  0  0  4           0  0  0
   -3.1147   -3.5486    5.1364 C   0  0  0  0  0  4           0  0  0
   -1.9703   -2.1633    6.7384 C   0  0  0  0  0  4           0  0  0
   -5.4396   -1.4262    3.7112 C   0  0  0  0  0  4           0  0  0
   -5.3604   -0.1479    5.7496 C   0  0  0  0  0  4           0  0  0
    5.1112   -0.8689    0.6941 C   0  0  0  0  0  4           0  0  0
    4.0581   -0.2225    2.7557 C   0  0  0  0  0  4           0  0  0
    5.6839   -1.9758    1.3314 C   0  0  0  0  0  4           0  0  0
    4.6300   -1.3289    3.3919 C   0  0  0  0  0  4           0  0  0
   -2.7478   -4.6886    5.8554 C   0  0  0  0  0  4           0  0  0
   -1.6016   -3.3051    7.4562 C   0  0  0  0  0  4           0  0  0
   -6.8265   -1.2676    3.6620 C   0  0  0  0  0  4           0  0  0
   -6.7490    0.0085    5.7006 C   0  0  0  0  0  4           0  0  0
   -1.9895   -4.5669    7.0152 C   0  0  0  0  0  4           0  0  0
   -7.4818   -0.5511    4.6582 C   0  0  0  0  0  4           0  0  0
   -3.1631   -1.0496    4.7676 C   0  0  1  0  0  4           0  0  0
    3.6860    1.2095    0.6983 C   0  0  1  0  0  4           0  0  0
   -0.3107   -1.1957    2.0641 C   0  0  0  0  0  4           0  0  0
   -2.1450    0.0729    1.1328 C   0  0  0  0  0  4           0  0  0
    0.0000    0.0000    0.0000 C   0  0  0  0  0  4           0  0  0
    6.0590   -3.4155    3.4070 C   0  0  2  0  0  4           0  0  0
   -2.4870   -1.0735    3.3738 C   0  0  2  0  0  4           0  0  0
    2.1490    1.2095    0.6983 C   0  0  0  0  0  4           0  0  0
   -0.9514   -1.1915    3.4547 C   0  0  0  0  0  4           0  0  0
   -2.8529    0.1329    2.4891 C   0  0  0  0  0  4           0  0  0
    1.5246    0.0000    0.0000 C   0  0  0  0  0  4           0  0  0
    5.5528   -4.7032    2.7281 C   0  0  0  0  0  4           0  0  0
    5.6564   -3.4503    4.8980 C   0  0  0  0  0  4           0  0  0
    7.6023   -3.3942    3.3441 C   0  0  0  0  0  4           0  0  0
  1 22  1  0     0  0
  2 23  1  0     0  0
  3 24  1  0     0  0
  3 25  1  0     0  0
  3 26  1  0     0  0
  4  8  2  0     0  0
  4  9  1  0     0  0
  4 22  1  0     0  0
  5 10  2  0     0  0
  5 11  1  0     0  0
  5 22  1  0     0  0
  6 12  2  0     0  0
  6 13  1  0     0  0
  6 23  1  0     0  0
  7 14  2  0     0  0
  7 15  1  0     0  0
  7 27  1  0     0  0
  8 16  1  0     0  0
  9 17  2  0     0  0
 10 18  1  0     0  0
 11 19  2  0     0  0
 12 14  1  0     0  0
 13 15  2  0     0  0
 16 20  2  0     0  0
 17 20  1  0     0  0
 18 21  2  0     0  0
 19 21  1  0     0  0
 22 28  1  0     0  0
 23 29  1  0     0  0
 24 30  1  0     0  0
 25 31  1  0     0  0
 26 32  1  0     0  0
 27 33  1  0     0  0
 27 34  1  0     0  0
 27 35  1  0     0  0
 28 30  1  0     0  0
 28 31  1  0     0  0
 29 32  1  0     0  0
M  END
> <standard_type>
pIC50

> <# Confs.>
25

> <canonical_smiles>
CC(C)(C1=CC=C(C(CCCN2CCC(C(C3=CC=CC=C3)(O)C4=CC=CC=C4)CC2)O)C=C1)C

> <standard_relation>
=

> <Publication_ID>
nan

> <predicted_activity_value>
nan

> <actual_activity_value>
1.2518119729937995

> <Compound>
Terfenadine

> <standard_units>
uM

> hash
14314180081394431565

$$$$
51
XXILIB    08252103503D 0   0.00000     0.00000

 35 38  0     1  0            999 V2000
   -2.8405   -0.2548    5.3196 O   0  0  0  0  0  2           0  0  0
    4.1646   -2.3762    1.3719 O   0  0  0  0  0  2           0  0  0
   -0.6848    0.0000    1.2948 N   0  0  2  0  0  3           0  0  0
   -4.7086    0.9674    4.5085 C   0  0  0  0  0  4           0  0  0
   -2.8186    2.0930    5.7453 C   0  0  0  0  0  4           0  0  0
    4.2921   -1.2205   -0.6809 C   0  0  0  0  0  4           0  0  0
    5.4612   -1.2220   -3.2721 C   0  0  0  0  0  4           0  0  0
   -5.3647    2.0791    3.9464 C   0  0  0  0  0  4           0  0  0
   -5.4943   -0.1384    4.8746 C   0  0  0  0  0  4           0  0  0
   -2.4562    3.3747    5.2891 C   0  0  0  0  0  4           0  0  0
   -2.7549    1.8496    7.1276 C   0  0  0  0  0  4           0  0  0
    5.1112   -0.1666   -1.0995 C   0  0  0  0  0  4           0  0  0
    4.0581   -2.2752   -1.5705 C   0  0  0  0  0  4           0  0  0
    5.6839   -0.1651   -2.3768 C   0  0  0  0  0  4           0  0  0
    4.6300   -2.2730   -2.8468 C   0  0  0  0  0  4           0  0  0
   -6.7463    2.0770    3.7406 C   0  0  0  0  0  4           0  0  0
   -6.8769   -0.1403    4.6662 C   0  0  0  0  0  4           0  0  0
   -2.0656    4.3771    6.1800 C   0  0  0  0  0  4           0  0  0
   -2.3658    2.8543    8.0188 C   0  0  0  0  0  4           0  0  0
   -7.5027    0.9660    4.0994 C   0  0  0  0  0  4           0  0  0
   -2.0218    4.1172    7.5459 C   0  0  0  0  0  4           0  0  0
   -3.2146    1.0159    4.7404 C   0  0  1  0  0  4           0  0  0
    3.6860   -1.2095    0.6983 C   0  0  1  0  0  4           0  0  0
   -2.1415   -0.0000    1.0958 C   0  0  0  0  0  4           0  0  0
   -0.2772    1.1469    2.1207 C   0  0  0  0  0  4           0  0  0
    0.0000    0.0000    0.0000 C   0  0  0  0  0  4           0  0  0
    6.0590   -1.2428   -4.6614 C   0  0  2  0  0  4           0  0  0
   -2.4852    1.0747    3.3747 C   0  0  2  0  0  4           0  0  0
    2.1490   -1.2095    0.6983 C   0  0  0  0  0  4           0  0  0
   -2.8901   -0.0747    2.4293 C   0  0  0  0  0  4           0  0  0
   -0.9503    1.1098    3.4954 C   0  0  0  0  0  4           0  0  0
    1.5246   -0.0000    0.0000 C   0  0  0  0  0  4           0  0  0
    5.5528   -0.0110   -5.4371 C   0  0  0  0  0  4           0  0  0
    5.6564   -2.5166   -5.4370 C   0  0  0  0  0  4           0  0  0
    7.6023   -1.1990   -4.6115 C   0  0  0  0  0  4           0  0  0
  1 22  1  0     0  0
  2 23  1  0     0  0
  3 24  1  0     0  0
  3 25  1  0     0  0
  3 26  1  0     0  0
  4  8  2  0     0  0
  4  9  1  0     0  0
  4 22  1  0     0  0
  5 10  2  0     0  0
  5 11  1  0     0  0
  5 22  1  0     0  0
  6 12  2  0     0  0
  6 13  1  0     0  0
  6 23  1  0     0  0
  7 14  2  0     0  0
  7 15  1  0     0  0
  7 27  1  0     0  0
  8 16  1  0     0  0
  9 17  2  0     0  0
 10 18  1  0     0  0
 11 19  2  0     0  0
 12 14  1  0     0  0
 13 15  2  0     0  0
 16 20  2  0     0  0
 17 20  1  0     0  0
 18 21  2  0     0  0
 19 21  1  0     0  0
 22 28  1  0     0  0
 23 29  1  0     0  0
 24 30  1  0     0  0
 25 31  1  0     0  0
 26 32  1  0     0  0
 27 33  1  0     0  0
 27 34  1  0     0  0
 27 35  1  0     0  0
 28 30  1  0     0  0
 28 31  1  0     0  0
 29 32  1  0     0  0
M  END
> <standard_type>
pIC50

> <# Confs.>
25

> <canonical_smiles>
CC(C)(C1=CC=C(C(CCCN2CCC(C(C3=CC=CC=C3)(O)C4=CC=CC=C4)CC2)O)C=C1)C

> <standard_relation>
=

> <Publication_ID>
nan

> <predicted_activity_value>
nan

> <actual_activity_value>
1.2518119729937995

> <Compound>
Terfenadine

> <standard_units>
uM

> hash
14314180081394431565

$$$$
51
XXILIB    08252103503D 0   0.00000     0.00000

 35 38  0     1  0            999 V2000
   -2.8405   -0.2548    5.3196 O   0  0  0  0  0  2           0  0  0
    4.1646   -1.2095   -0.6488 O   0  0  0  0  0  2           0  0  0
   -0.6848    0.0000    1.2948 N   0  0  2  0  0  3           0  0  0
   -4.7086    0.9674    4.5085 C   0  0  0  0  0  4           0  0  0
   -2.8186    2.0930    5.7453 C   0  0  0  0  0  4           0  0  0
    4.2921   -0.0096    1.3785 C   0  0  0  0  0  4           0  0  0
    5.4490    2.2342    2.6854 C   0  0  0  0  0  4           0  0  0
   -5.3647    2.0791    3.9464 C   0  0  0  0  0  4           0  0  0
   -5.4943   -0.1384    4.8746 C   0  0  0  0  0  4           0  0  0
   -2.4562    3.3747    5.2891 C   0  0  0  0  0  4           0  0  0
   -2.7549    1.8496    7.1276 C   0  0  0  0  0  4           0  0  0
    4.5556   -0.0360    2.7521 C   0  0  0  0  0  4           0  0  0
    4.6083    1.1506    0.6625 C   0  0  0  0  0  4           0  0  0
    5.1216    1.0701    3.3967 C   0  0  0  0  0  4           0  0  0
    5.1732    2.2557    1.3070 C   0  0  0  0  0  4           0  0  0
   -6.7463    2.0770    3.7406 C   0  0  0  0  0  4           0  0  0
   -6.8769   -0.1403    4.6662 C   0  0  0  0  0  4           0  0  0
   -2.0656    4.3771    6.1800 C   0  0  0  0  0  4           0  0  0
   -2.3658    2.8543    8.0188 C   0  0  0  0  0  4           0  0  0
   -7.5027    0.9660    4.0994 C   0  0  0  0  0  4           0  0  0
   -2.0218    4.1172    7.5459 C   0  0  0  0  0  4           0  0  0
   -3.2146    1.0159    4.7404 C   0  0  1  0  0  4           0  0  0
    3.6860   -1.2095    0.6983 C   0  0  1  0  0  4           0  0  0
   -2.1415   -0.0000    1.0958 C   0  0  0  0  0  4           0  0  0
   -0.2772    1.1469    2.1207 C   0  0  0  0  0  4           0  0  0
    0.0000    0.0000    0.0000 C   0  0  0  0  0  4           0  0  0
    6.0527    3.4477    3.3567 C   0  0  2  0  0  4           0  0  0
   -2.4852    1.0747    3.3747 C   0  0  2  0  0  4           0  0  0
    2.1490   -1.2095    0.6983 C   0  0  0  0  0  4           0  0  0
   -2.8901   -0.0747    2.4293 C   0  0  0  0  0  4           0  0  0
   -0.9503    1.1098    3.4954 C   0  0  0  0  0  4           0  0  0
    1.5246    0.0000    0.0000 C   0  0  0  0  0  4           0  0  0
    5.0745    3.9561    4.4338 C   0  0  0  0  0  4           0  0  0
    6.3144    4.5875    2.3474 C   0  0  0  0  0  4           0  0  0
    7.4004    3.1069    4.0304 C   0  0  0  0  0  4           0  0  0
  1 22  1  0     0  0
  2 23  1  0     0  0
  3 24  1  0     0  0
  3 25  1  0     0  0
  3 26  1  0     0  0
  4  8  2  0     0  0
  4  9  1  0     0  0
  4 22  1  0     0  0
  5 10  2  0     0  0
  5 11  1  0     0  0
  5 22  1  0     0  0
  6 12  2  0     0  0
  6 13  1  0     0  0
  6 23  1  0     0  0
  7 14  2  0     0  0
  7 15  1  0     0  0
  7 27  1  0     0  0
  8 16  1  0     0  0
  9 17  2  0     0  0
 10 18  1  0     0  0
 11 19  2  0     0  0
 12 14  1  0     0  0
 13 15  2  0     0  0
 16 20  2  0     0  0
 17 20  1  0     0  0
 18 21  2  0     0  0
 19 21  1  0     0  0
 22 28  1  0     0  0
 23 29  1  0     0  0
 24 30  1  0     0  0
 25 31  1  0     0  0
 26 32  1  0     0  0
 27 33  1  0     0  0
 27 34  1  0     0  0
 27 35  1  0     0  0
 28 30  1  0     0  0
 28 31  1  0     0  0
 29 32  1  0     0  0
M  END
> <standard_type>
pIC50

> <# Confs.>
25

> <canonical_smiles>
CC(C)(C1=CC=C(C(CCCN2CCC(C(C3=CC=CC=C3)(O)C4=CC=CC=C4)CC2)O)C=C1)C

> <standard_relation>
=

> <Publication_ID>
nan

> <predicted_activity_value>
nan

> <actual_activity_value>
1.2518119729937995

> <Compound>
Terfenadine

> <standard_units>
uM

> hash
14314180081394431565

$$$$
51
XXILIB    08252103503D 0   0.00000     0.00000

 35 38  0     1  0            999 V2000
   -2.6137    0.1068    5.4395 O   0  0  0  0  0  2           0  0  0
    4.1646    0.0429    1.3719 O   0  0  0  0  0  2           0  0  0
   -0.6848    0.0000    1.2948 N   0  0  2  0  0  3           0  0  0
   -2.7250   -2.2629    5.5576 C   0  0  0  0  0  4           0  0  0
   -4.6788   -0.8781    4.7615 C   0  0  0  0  0  4           0  0  0
    4.2921    1.1986   -0.6809 C   0  0  0  0  0  4           0  0  0
    5.4490    1.2085   -3.2775 C   0  0  0  0  0  4           0  0  0
   -3.1147   -3.5486    5.1364 C   0  0  0  0  0  4           0  0  0
   -1.9703   -2.1633    6.7384 C   0  0  0  0  0  4           0  0  0
   -5.4396   -1.4262    3.7112 C   0  0  0  0  0  4           0  0  0
   -5.3604   -0.1479    5.7496 C   0  0  0  0  0  4           0  0  0
    4.5556    2.4013   -1.3449 C   0  0  0  0  0  4           0  0  0
    4.6083   -0.0016   -1.3276 C   0  0  0  0  0  4           0  0  0
    5.1216    2.4065   -2.6251 C   0  0  0  0  0  4           0  0  0
    5.1732    0.0041   -2.6070 C   0  0  0  0  0  4           0  0  0
   -2.7478   -4.6886    5.8554 C   0  0  0  0  0  4           0  0  0
   -1.6016   -3.3051    7.4562 C   0  0  0  0  0  4           0  0  0
   -6.8265   -1.2676    3.6620 C   0  0  0  0  0  4           0  0  0
   -6.7490    0.0085    5.7006 C   0  0  0  0  0  4           0  0  0
   -1.9895   -4.5669    7.0152 C   0  0  0  0  0  4           0  0  0
   -7.4818   -0.5511    4.6582 C   0  0  0  0  0  4           0  0  0
   -3.1631   -1.0496    4.7676 C   0  0  1  0  0  4           0  0  0
    3.6860    1.2095    0.6983 C   0  0  1  0  0  4           0  0  0
   -0.3107   -1.1957    2.0641 C   0  0  0  0  0  4           0  0  0
   -2.1450    0.0729    1.1328 C   0  0  0  0  0  4           0  0  0
    0.0000    0.0000    0.0000 C   0  0  0  0  0  4           0  0  0
    6.0527    1.1832   -4.6642 C   0  0  2  0  0  4           0  0  0
   -2.4870   -1.0735    3.3738 C   0  0  2  0  0  4           0  0  0
    2.1490    1.2095    0.6983 C   0  0  0  0  0  4           0  0  0
   -0.9514   -1.1915    3.4547 C   0  0  0  0  0  4           0  0  0
   -2.8529    0.1329    2.4891 C   0  0  0  0  0  4           0  0  0
    1.5246    0.0000   -0.0000 C   0  0  0  0  0  4           0  0  0
    5.0745    1.8617   -5.6429 C   0  0  0  0  0  4           0  0  0
    6.3144   -0.2608   -5.1466 C   0  0  0  0  0  4           0  0  0
    7.4004    1.9370   -4.7059 C   0  0  0  0  0  4           0  0  0
  1 22  1  0     0  0
  2 23  1  0     0  0
  3 24  1  0     0  0
  3 25  1  0     0  0
  3 26  1  0     0  0
  4  8  2  0     0  0
  4  9  1  0     0  0
  4 22  1  0     0  0
  5 10  2  0     0  0
  5 11  1  0     0  0
  5 22  1  0     0  0
  6 12  2  0     0  0
  6 13  1  0     0  0
  6 23  1  0     0  0
  7 14  2  0     0  0
  7 15  1  0     0  0
  7 27  1  0     0  0
  8 16  1  0     0  0
  9 17  2  0     0  0
 10 18  1  0     0  0
 11 19  2  0     0  0
 12 14  1  0     0  0
 13 15  2  0     0  0
 16 20  2  0     0  0
 17 20  1  0     0  0
 18 21  2  0     0  0
 19 21  1  0     0  0
 22 28  1  0     0  0
 23 29  1  0     0  0
 24 30  1  0     0  0
 25 31  1  0     0  0
 26 32  1  0     0  0
 27 33  1  0     0  0
 27 34  1  0     0  0
 27 35  1  0     0  0
 28 30  1  0     0  0
 28 31  1  0     0  0
 29 32  1  0     0  0
M  END
> <standard_type>
pIC50

> <# Confs.>
25

> <canonical_smiles>
CC(C)(C1=CC=C(C(CCCN2CCC(C(C3=CC=CC=C3)(O)C4=CC=CC=C4)CC2)O)C=C1)C

> <standard_relation>
=

> <Publication_ID>
nan

> <predicted_activity_value>
nan

> <actual_activity_value>
1.2518119729937995

> <Compound>
Terfenadine

> <standard_units>
uM

> hash
14314180081394431565

$$$$
51
XXILIB    08252103503D 0   0.00000     0.00000

 35 38  0     1  0            999 V2000
   -2.8405   -0.2548    5.3196 O   0  0  0  0  0  2           0  0  0
    4.1646    0.0000   -2.7438 O   0  0  0  0  0  2           0  0  0
   -0.6848    0.0000    1.2948 N   0  0  2  0  0  3           0  0  0
   -4.7086    0.9674    4.5085 C   0  0  0  0  0  4           0  0  0
   -2.8186    2.0930    5.7453 C   0  0  0  0  0  4           0  0  0
    4.2921    1.1999   -0.7165 C   0  0  0  0  0  4           0  0  0
    5.4612    3.4447    0.5778 C   0  0  0  0  0  4           0  0  0
   -5.3647    2.0791    3.9464 C   0  0  0  0  0  4           0  0  0
   -5.4943   -0.1384    4.8746 C   0  0  0  0  0  4           0  0  0
   -2.4562    3.3747    5.2891 C   0  0  0  0  0  4           0  0  0
   -2.7549    1.8496    7.1276 C   0  0  0  0  0  4           0  0  0
    5.1112    1.0355    0.4055 C   0  0  0  0  0  4           0  0  0
    4.0581    2.4977   -1.1851 C   0  0  0  0  0  4           0  0  0
    5.6839    2.1409    1.0455 C   0  0  0  0  0  4           0  0  0
    4.6300    3.6019   -0.5450 C   0  0  0  0  0  4           0  0  0
   -6.7463    2.0770    3.7406 C   0  0  0  0  0  4           0  0  0
   -6.8769   -0.1403    4.6662 C   0  0  0  0  0  4           0  0  0
   -2.0656    4.3771    6.1800 C   0  0  0  0  0  4           0  0  0
   -2.3658    2.8543    8.0188 C   0  0  0  0  0  4           0  0  0
   -7.5027    0.9660    4.0994 C   0  0  0  0  0  4           0  0  0
   -2.0218    4.1172    7.5459 C   0  0  0  0  0  4           0  0  0
   -3.2146    1.0159    4.7404 C   0  0  1  0  0  4           0  0  0
    3.6860    0.0000   -1.3967 C   0  0  1  0  0  4           0  0  0
   -2.1415   -0.0000    1.0958 C   0  0  0  0  0  4           0  0  0
   -0.2772    1.1469    2.1207 C   0  0  0  0  0  4           0  0  0
    0.0000    0.0000    0.0000 C   0  0  0  0  0  4           0  0  0
    6.0590    4.6583    1.2544 C   0  0  2  0  0  4           0  0  0
   -2.4852    1.0747    3.3747 C   0  0  2  0  0  4           0  0  0
    2.1490    0.0000   -1.3967 C   0  0  0  0  0  4           0  0  0
   -2.8901   -0.0747    2.4293 C   0  0  0  0  0  4           0  0  0
   -0.9503    1.1098    3.4954 C   0  0  0  0  0  4           0  0  0
    1.5246    0.0000   -0.0000 C   0  0  0  0  0  4           0  0  0
    5.5528    4.7142    2.7090 C   0  0  0  0  0  4           0  0  0
    5.6564    5.9669    0.5390 C   0  0  0  0  0  4           0  0  0
    7.6023    4.5932    1.2674 C   0  0  0  0  0  4           0  0  0
  1 22  1  0     0  0
  2 23  1  0     0  0
  3 24  1  0     0  0
  3 25  1  0     0  0
  3 26  1  0     0  0
  4  8  2  0     0  0
  4  9  1  0     0  0
  4 22  1  0     0  0
  5 10  2  0     0  0
  5 11  1  0     0  0
  5 22  1  0     0  0
  6 12  2  0     0  0
  6 13  1  0     0  0
  6 23  1  0     0  0
  7 14  2  0     0  0
  7 15  1  0     0  0
  7 27  1  0     0  0
  8 16  1  0     0  0
  9 17  2  0     0  0
 10 18  1  0     0  0
 11 19  2  0     0  0
 12 14  1  0     0  0
 13 15  2  0     0  0
 16 20  2  0     0  0
 17 20  1  0     0  0
 18 21  2  0     0  0
 19 21  1  0     0  0
 22 28  1  0     0  0
 23 29  1  0     0  0
 24 30  1  0     0  0
 25 31  1  0     0  0
 26 32  1  0     0  0
 27 33  1  0     0  0
 27 34  1  0     0  0
 27 35  1  0     0  0
 28 30  1  0     0  0
 28 31  1  0     0  0
 29 32  1  0     0  0
M  END
> <standard_type>
pIC50

> <# Confs.>
25

> <canonical_smiles>
CC(C)(C1=CC=C(C(CCCN2CCC(C(C3=CC=CC=C3)(O)C4=CC=CC=C4)CC2)O)C=C1)C

> <standard_relation>
=

> <Publication_ID>
nan

> <predicted_activity_value>
nan

> <actual_activity_value>
1.2518119729937995

> <Compound>
Terfenadine

> <standard_units>
uM

> hash
14314180081394431565

$$$$
51
XXILIB    08252103503D 0   0.00000     0.00000

 35 38  0     1  0            999 V2000
   -2.8405   -0.2548    5.3196 O   0  0  0  0  0  2           0  0  0
    2.1908   -2.5979   -1.2887 O   0  0  0  0  0  2           0  0  0
   -0.6848    0.0000    1.2948 N   0  0  2  0  0  3           0  0  0
   -4.7086    0.9674    4.5085 C   0  0  0  0  0  4           0  0  0
   -2.8186    2.0930    5.7453 C   0  0  0  0  0  4           0  0  0
    2.3925   -3.7456    0.7627 C   0  0  0  0  0  4           0  0  0
    3.5465   -5.9915    2.0686 C   0  0  0  0  0  4           0  0  0
   -5.3647    2.0791    3.9464 C   0  0  0  0  0  4           0  0  0
   -5.4943   -0.1384    4.8746 C   0  0  0  0  0  4           0  0  0
   -2.4562    3.3747    5.2891 C   0  0  0  0  0  4           0  0  0
   -2.7549    1.8496    7.1276 C   0  0  0  0  0  4           0  0  0
    1.7467   -4.3588    1.8416 C   0  0  0  0  0  4           0  0  0
    3.6237   -4.2622    0.3433 C   0  0  0  0  0  4           0  0  0
    2.3165   -5.4623    2.4874 C   0  0  0  0  0  4           0  0  0
    4.1929   -5.3643    0.9893 C   0  0  0  0  0  4           0  0  0
   -6.7463    2.0770    3.7406 C   0  0  0  0  0  4           0  0  0
   -6.8769   -0.1403    4.6662 C   0  0  0  0  0  4           0  0  0
   -2.0656    4.3771    6.1800 C   0  0  0  0  0  4           0  0  0
   -2.3658    2.8543    8.0188 C   0  0  0  0  0  4           0  0  0
   -7.5027    0.9660    4.0994 C   0  0  0  0  0  4           0  0  0
   -2.0218    4.1172    7.5459 C   0  0  0  0  0  4           0  0  0
   -3.2146    1.0159    4.7404 C   0  0  1  0  0  4           0  0  0
    1.7646   -2.5610    0.0755 C   0  0  1  0  0  4           0  0  0
   -2.1415   -0.0000    1.0958 C   0  0  0  0  0  4           0  0  0
   -0.2772    1.1469    2.1207 C   0  0  0  0  0  4           0  0  0
    0.0000    0.0000    0.0000 C   0  0  0  0  0  4           0  0  0
    4.1905   -7.1767    2.7531 C   0  0  2  0  0  4           0  0  0
   -2.4852    1.0747    3.3747 C   0  0  2  0  0  4           0  0  0
    2.1490   -1.2095    0.6983 C   0  0  0  0  0  4           0  0  0
   -2.8901   -0.0747    2.4293 C   0  0  0  0  0  4           0  0  0
   -0.9503    1.1098    3.4954 C   0  0  0  0  0  4           0  0  0
    1.5246    0.0000    0.0000 C   0  0  0  0  0  4           0  0  0
    4.4457   -6.8175    4.2299 C   0  0  0  0  0  4           0  0  0
    5.5362   -7.5539    2.0951 C   0  0  0  0  0  4           0  0  0
    3.2807   -8.4238    2.6950 C   0  0  0  0  0  4           0  0  0
  1 22  1  0     0  0
  2 23  1  0     0  0
  3 24  1  0     0  0
  3 25  1  0     0  0
  3 26  1  0     0  0
  4  8  2  0     0  0
  4  9  1  0     0  0
  4 22  1  0     0  0
  5 10  2  0     0  0
  5 11  1  0     0  0
  5 22  1  0     0  0
  6 12  2  0     0  0
  6 13  1  0     0  0
  6 23  1  0     0  0
  7 14  2  0     0  0
  7 15  1  0     0  0
  7 27  1  0     0  0
  8 16  1  0     0  0
  9 17  2  0     0  0
 10 18  1  0     0  0
 11 19  2  0     0  0
 12 14  1  0     0  0
 13 15  2  0     0  0
 16 20  2  0     0  0
 17 20  1  0     0  0
 18 21  2  0     0  0
 19 21  1  0     0  0
 22 28  1  0     0  0
 23 29  1  0     0  0
 24 30  1  0     0  0
 25 31  1  0     0  0
 26 32  1  0     0  0
 27 33  1  0     0  0
 27 34  1  0     0  0
 27 35  1  0     0  0
 28 30  1  0     0  0
 28 31  1  0     0  0
 29 32  1  0     0  0
M  END
> <standard_type>
pIC50

> <# Confs.>
25

> <canonical_smiles>
CC(C)(C1=CC=C(C(CCCN2CCC(C(C3=CC=CC=C3)(O)C4=CC=CC=C4)CC2)O)C=C1)C

> <standard_relation>
=

> <Publication_ID>
nan

> <predicted_activity_value>
nan

> <actual_activity_value>
1.2518119729937995

> <Compound>
Terfenadine

> <standard_units>
uM

> hash
14314180081394431565

$$$$
51
XXILIB    08252103503D 0   0.00000     0.00000

 35 38  0     1  0            999 V2000
   -2.6137    0.1068    5.4395 O   0  0  0  0  0  2           0  0  0
    2.3977   -1.1174   -3.5337 O   0  0  0  0  0  2           0  0  0
   -0.6848    0.0000    1.2948 N   0  0  2  0  0  3           0  0  0
   -2.7250   -2.2629    5.5576 C   0  0  0  0  0  4           0  0  0
   -4.6788   -0.8781    4.7615 C   0  0  0  0  0  4           0  0  0
    2.1815   -2.5347   -1.6601 C   0  0  0  0  0  4           0  0  0
    2.9404   -5.0389   -0.5491 C   0  0  0  0  0  4           0  0  0
   -3.1147   -3.5486    5.1364 C   0  0  0  0  0  4           0  0  0
   -1.9703   -2.1633    6.7384 C   0  0  0  0  0  4           0  0  0
   -5.4396   -1.4262    3.7112 C   0  0  0  0  0  4           0  0  0
   -5.3604   -0.1479    5.7496 C   0  0  0  0  0  4           0  0  0
    1.2196   -3.4967   -1.3343 C   0  0  0  0  0  4           0  0  0
    3.5280   -2.8330   -1.4221 C   0  0  0  0  0  4           0  0  0
    1.5926   -4.7284   -0.7836 C   0  0  0  0  0  4           0  0  0
    3.9002   -4.0634   -0.8713 C   0  0  0  0  0  4           0  0  0
   -2.7478   -4.6886    5.8554 C   0  0  0  0  0  4           0  0  0
   -1.6016   -3.3051    7.4562 C   0  0  0  0  0  4           0  0  0
   -6.8265   -1.2676    3.6620 C   0  0  0  0  0  4           0  0  0
   -6.7490    0.0085    5.7006 C   0  0  0  0  0  4           0  0  0
   -1.9895   -4.5669    7.0152 C   0  0  0  0  0  4           0  0  0
   -7.4818   -0.5511    4.6582 C   0  0  0  0  0  4           0  0  0
   -3.1631   -1.0496    4.7676 C   0  0  1  0  0  4           0  0  0
    1.7646   -1.2151   -2.2557 C   0  0  1  0  0  4           0  0  0
   -0.3107   -1.1957    2.0641 C   0  0  0  0  0  4           0  0  0
   -2.1450    0.0729    1.1328 C   0  0  0  0  0  4           0  0  0
    0.0000    0.0000    0.0000 C   0  0  0  0  0  4           0  0  0
    3.3722   -6.3574    0.0533 C   0  0  2  0  0  4           0  0  0
   -2.4870   -1.0735    3.3738 C   0  0  2  0  0  4           0  0  0
    2.1490    0.0000   -1.3967 C   0  0  0  0  0  4           0  0  0
   -0.9514   -1.1915    3.4547 C   0  0  0  0  0  4           0  0  0
   -2.8529    0.1329    2.4891 C   0  0  0  0  0  4           0  0  0
    1.5246    0.0000   -0.0000 C   0  0  0  0  0  4           0  0  0
    2.7301   -6.4993    1.4471 C   0  0  0  0  0  4           0  0  0
    4.9074   -6.4406    0.2041 C   0  0  0  0  0  4           0  0  0
    2.9275   -7.5497   -0.8226 C   0  0  0  0  0  4           0  0  0
  1 22  1  0     0  0
  2 23  1  0     0  0
  3 24  1  0     0  0
  3 25  1  0     0  0
  3 26  1  0     0  0
  4  8  2  0     0  0
  4  9  1  0     0  0
  4 22  1  0     0  0
  5 10  2  0     0  0
  5 11  1  0     0  0
  5 22  1  0     0  0
  6 12  2  0     0  0
  6 13  1  0     0  0
  6 23  1  0     0  0
  7 14  2  0     0  0
  7 15  1  0     0  0
  7 27  1  0     0  0
  8 16  1  0     0  0
  9 17  2  0     0  0
 10 18  1  0     0  0
 11 19  2  0     0  0
 12 14  1  0     0  0
 13 15  2  0     0  0
 16 20  2  0     0  0
 17 20  1  0     0  0
 18 21  2  0     0  0
 19 21  1  0     0  0
 22 28  1  0     0  0
 23 29  1  0     0  0
 24 30  1  0     0  0
 25 31  1  0     0  0
 26 32  1  0     0  0
 27 33  1  0     0  0
 27 34  1  0     0  0
 27 35  1  0     0  0
 28 30  1  0     0  0
 28 31  1  0     0  0
 29 32  1  0     0  0
M  END
> <standard_type>
pIC50

> <# Confs.>
25

> <canonical_smiles>
CC(C)(C1=CC=C(C(CCCN2CCC(C(C3=CC=CC=C3)(O)C4=CC=CC=C4)CC2)O)C=C1)C

> <standard_relation>
=

> <Publication_ID>
nan

> <predicted_activity_value>
nan

> <actual_activity_value>
1.2518119729937995

> <Compound>
Terfenadine

> <standard_units>
uM

> hash
14314180081394431565

$$$$
51
XXILIB    08252103503D 0   0.00000     0.00000

 35 38  0     1  0            999 V2000
   -2.6137    0.1068    5.4395 O   0  0  0  0  0  2           0  0  0
    4.1646    0.0000   -2.7438 O   0  0  0  0  0  2           0  0  0
   -0.6848    0.0000    1.2948 N   0  0  2  0  0  3           0  0  0
   -2.7250   -2.2629    5.5576 C   0  0  0  0  0  4           0  0  0
   -4.6788   -0.8781    4.7615 C   0  0  0  0  0  4           0  0  0
    4.2921    1.1999   -0.7165 C   0  0  0  0  0  4           0  0  0
    5.4612    3.4447    0.5778 C   0  0  0  0  0  4           0  0  0
   -3.1147   -3.5486    5.1364 C   0  0  0  0  0  4           0  0  0
   -1.9703   -2.1633    6.7384 C   0  0  0  0  0  4           0  0  0
   -5.4396   -1.4262    3.7112 C   0  0  0  0  0  4           0  0  0
   -5.3604   -0.1479    5.7496 C   0  0  0  0  0  4           0  0  0
    5.1112    1.0355    0.4055 C   0  0  0  0  0  4           0  0  0
    4.0581    2.4977   -1.1851 C   0  0  0  0  0  4           0  0  0
    5.6839    2.1409    1.0455 C   0  0  0  0  0  4           0  0  0
    4.6300    3.6019   -0.5450 C   0  0  0  0  0  4           0  0  0
   -2.7478   -4.6886    5.8554 C   0  0  0  0  0  4           0  0  0
   -1.6016   -3.3051    7.4562 C   0  0  0  0  0  4           0  0  0
   -6.8265   -1.2676    3.6620 C   0  0  0  0  0  4           0  0  0
   -6.7490    0.0085    5.7006 C   0  0  0  0  0  4           0  0  0
   -1.9895   -4.5669    7.0152 C   0  0  0  0  0  4           0  0  0
   -7.4818   -0.5511    4.6582 C   0  0  0  0  0  4           0  0  0
   -3.1631   -1.0496    4.7676 C   0  0  1  0  0  4           0  0  0
    3.6860    0.0000   -1.3967 C   0  0  1  0  0  4           0  0  0
   -0.3107   -1.1957    2.0641 C   0  0  0  0  0  4           0  0  0
   -2.1450    0.0729    1.1328 C   0  0  0  0  0  4           0  0  0
    0.0000    0.0000    0.0000 C   0  0  0  0  0  4           0  0  0
    6.0590    4.6583    1.2544 C   0  0  2  0  0  4           0  0  0
   -2.4870   -1.0735    3.3738 C   0  0  2  0  0  4           0  0  0
    2.1490    0.0000   -1.3967 C   0  0  0  0  0  4           0  0  0
   -0.9514   -1.1915    3.4547 C   0  0  0  0  0  4           0  0  0
   -2.8529    0.1329    2.4891 C   0  0  0  0  0  4           0  0  0
    1.5246    0.0000   -0.0000 C   0  0  0  0  0  4           0  0  0
    5.5528    4.7142    2.7090 C   0  0  0  0  0  4           0  0  0
    5.6564    5.9669    0.5390 C   0  0  0  0  0  4           0  0  0
    7.6023    4.5932    1.2674 C   0  0  0  0  0  4           0  0  0
  1 22  1  0     0  0
  2 23  1  0     0  0
  3 24  1  0     0  0
  3 25  1  0     0  0
  3 26  1  0     0  0
  4  8  2  0     0  0
  4  9  1  0     0  0
  4 22  1  0     0  0
  5 10  2  0     0  0
  5 11  1  0     0  0
  5 22  1  0     0  0
  6 12  2  0     0  0
  6 13  1  0     0  0
  6 23  1  0     0  0
  7 14  2  0     0  0
  7 15  1  0     0  0
  7 27  1  0     0  0
  8 16  1  0     0  0
  9 17  2  0     0  0
 10 18  1  0     0  0
 11 19  2  0     0  0
 12 14  1  0     0  0
 13 15  2  0     0  0
 16 20  2  0     0  0
 17 20  1  0     0  0
 18 21  2  0     0  0
 19 21  1  0     0  0
 22 28  1  0     0  0
 23 29  1  0     0  0
 24 30  1  0     0  0
 25 31  1  0     0  0
 26 32  1  0     0  0
 27 33  1  0     0  0
 27 34  1  0     0  0
 27 35  1  0     0  0
 28 30  1  0     0  0
 28 31  1  0     0  0
 29 32  1  0     0  0
M  END
> <standard_type>
pIC50

> <# Confs.>
25

> <canonical_smiles>
CC(C)(C1=CC=C(C(CCCN2CCC(C(C3=CC=CC=C3)(O)C4=CC=CC=C4)CC2)O)C=C1)C

> <standard_relation>
=

> <Publication_ID>
nan

> <predicted_activity_value>
nan

> <actual_activity_value>
1.2518119729937995

> <Compound>
Terfenadine

> <standard_units>
uM

> hash
14314180081394431565

$$$$
51
XXILIB    08252103503D 0   0.00000     0.00000

 35 38  0     1  0            999 V2000
   -2.6137    0.1068    5.4395 O   0  0  0  0  0  2           0  0  0
    4.1646    1.2095   -0.6488 O   0  0  0  0  0  2           0  0  0
   -0.6848    0.0000    1.2948 N   0  0  2  0  0  3           0  0  0
   -2.7250   -2.2629    5.5576 C   0  0  0  0  0  4           0  0  0
   -4.6788   -0.8781    4.7615 C   0  0  0  0  0  4           0  0  0
    4.2921    2.4095    1.3785 C   0  0  0  0  0  4           0  0  0
    5.4490    4.6533    2.6854 C   0  0  0  0  0  4           0  0  0
   -3.1147   -3.5486    5.1364 C   0  0  0  0  0  4           0  0  0
   -1.9703   -2.1633    6.7384 C   0  0  0  0  0  4           0  0  0
   -5.4396   -1.4262    3.7112 C   0  0  0  0  0  4           0  0  0
   -5.3604   -0.1479    5.7496 C   0  0  0  0  0  4           0  0  0
    4.5556    2.3831    2.7521 C   0  0  0  0  0  4           0  0  0
    4.6083    3.5696    0.6625 C   0  0  0  0  0  4           0  0  0
    5.1216    3.4892    3.3967 C   0  0  0  0  0  4           0  0  0
    5.1732    4.6748    1.3070 C   0  0  0  0  0  4           0  0  0
   -2.7478   -4.6886    5.8554 C   0  0  0  0  0  4           0  0  0
   -1.6016   -3.3051    7.4562 C   0  0  0  0  0  4           0  0  0
   -6.8265   -1.2676    3.6620 C   0  0  0  0  0  4           0  0  0
   -6.7490    0.0085    5.7006 C   0  0  0  0  0  4           0  0  0
   -1.9895   -4.5669    7.0152 C   0  0  0  0  0  4           0  0  0
   -7.4818   -0.5511    4.6582 C   0  0  0  0  0  4           0  0  0
   -3.1631   -1.0496    4.7676 C   0  0  1  0  0  4           0  0  0
    3.6860    1.2095    0.6983 C   0  0  1  0  0  4           0  0  0
   -0.3107   -1.1957    2.0641 C   0  0  0  0  0  4           0  0  0
   -2.1450    0.0729    1.1328 C   0  0  0  0  0  4           0  0  0
    0.0000    0.0000    0.0000 C   0  0  0  0  0  4           0  0  0
    6.0527    5.8668    3.3567 C   0  0  2  0  0  4           0  0  0
   -2.4870   -1.0735    3.3738 C   0  0  2  0  0  4           0  0  0
    2.1490    1.2095    0.6983 C   0  0  0  0  0  4           0  0  0
   -0.9514   -1.1915    3.4547 C   0  0  0  0  0  4           0  0  0
   -2.8529    0.1329    2.4891 C   0  0  0  0  0  4           0  0  0
    1.5246    0.0000    0.0000 C   0  0  0  0  0  4           0  0  0
    5.0745    6.3752    4.4338 C   0  0  0  0  0  4           0  0  0
    6.3144    7.0066    2.3474 C   0  0  0  0  0  4           0  0  0
    7.4004    5.5260    4.0304 C   0  0  0  0  0  4           0  0  0
  1 22  1  0     0  0
  2 23  1  0     0  0
  3 24  1  0     0  0
  3 25  1  0     0  0
  3 26  1  0     0  0
  4  8  2  0     0  0
  4  9  1  0     0  0
  4 22  1  0     0  0
  5 10  2  0     0  0
  5 11  1  0     0  0
  5 22  1  0     0  0
  6 12  2  0     0  0
  6 13  1  0     0  0
  6 23  1  0     0  0
  7 14  2  0     0  0
  7 15  1  0     0  0
  7 27  1  0     0  0
  8 16  1  0     0  0
  9 17  2  0     0  0
 10 18  1  0     0  0
 11 19  2  0     0  0
 12 14  1  0     0  0
 13 15  2  0     0  0
 16 20  2  0     0  0
 17 20  1  0     0  0
 18 21  2  0     0  0
 19 21  1  0     0  0
 22 28  1  0     0  0
 23 29  1  0     0  0
 24 30  1  0     0  0
 25 31  1  0     0  0
 26 32  1  0     0  0
 27 33  1  0     0  0
 27 34  1  0     0  0
 27 35  1  0     0  0
 28 30  1  0     0  0
 28 31  1  0     0  0
 29 32  1  0     0  0
M  END
> <standard_type>
pIC50

> <# Confs.>
25

> <canonical_smiles>
CC(C)(C1=CC=C(C(CCCN2CCC(C(C3=CC=CC=C3)(O)C4=CC=CC=C4)CC2)O)C=C1)C

> <standard_relation>
=

> <Publication_ID>
nan

> <predicted_activity_value>
nan

> <actual_activity_value>
1.2518119729937995

> <Compound>
Terfenadine

> <standard_units>
uM

> hash
14314180081394431565

$$$$
51
XXILIB    08252103503D 0   0.00000     0.00000

 35 38  0     1  0            999 V2000
   -3.0039    0.1481    5.2331 O   0  0  0  0  0  2           0  0  0
    2.3977   -1.1174   -3.5337 O   0  0  0  0  0  2           0  0  0
   -0.6848   -0.0000    1.2948 N   0  0  2  0  0  3           0  0  0
   -1.2439    1.2955    6.3409 C   0  0  0  0  0  4           0  0  0
   -1.4742   -1.2150    6.4564 C   0  0  0  0  0  4           0  0  0
    2.1815   -2.5347   -1.6601 C   0  0  0  0  0  4           0  0  0
    2.9404   -5.0389   -0.5491 C   0  0  0  0  0  4           0  0  0
    0.0686    1.4695    6.8200 C   0  0  0  0  0  4           0  0  0
   -2.1821    2.3016    6.6264 C   0  0  0  0  0  4           0  0  0
   -0.2725   -1.9485    6.4440 C   0  0  0  0  0  4           0  0  0
   -2.5285   -1.7017    7.2474 C   0  0  0  0  0  4           0  0  0
    1.2196   -3.4967   -1.3343 C   0  0  0  0  0  4           0  0  0
    3.5280   -2.8330   -1.4221 C   0  0  0  0  0  4           0  0  0
    1.5926   -4.7284   -0.7836 C   0  0  0  0  0  4           0  0  0
    3.9002   -4.0634   -0.8713 C   0  0  0  0  0  4           0  0  0
    0.4324    2.6115    7.5374 C   0  0  0  0  0  4           0  0  0
   -1.8164    3.4454    7.3426 C   0  0  0  0  0  4           0  0  0
   -0.1247   -3.1095    7.2065 C   0  0  0  0  0  4           0  0  0
   -2.3788   -2.8628    8.0120 C   0  0  0  0  0  4           0  0  0
   -0.5104    3.6008    7.7975 C   0  0  0  0  0  4           0  0  0
   -1.1780   -3.5661    7.9922 C   0  0  0  0  0  4           0  0  0
   -1.6076    0.0337    5.5903 C   0  0  1  0  0  4           0  0  0
    1.7646   -1.2151   -2.2557 C   0  0  1  0  0  4           0  0  0
   -0.3107    1.1957    2.0641 C   0  0  0  0  0  4           0  0  0
   -0.3889   -1.2199    2.0616 C   0  0  0  0  0  4           0  0  0
    0.0000    0.0000   -0.0000 C   0  0  0  0  0  4           0  0  0
    3.3722   -6.3574    0.0533 C   0  0  2  0  0  4           0  0  0
   -0.8416   -0.0012    4.2440 C   0  0  2  0  0  4           0  0  0
    2.1490    0.0000   -1.3967 C   0  0  0  0  0  4           0  0  0
   -1.0658    1.2662    3.3942 C   0  0  0  0  0  4           0  0  0
   -1.1537   -1.2427    3.3878 C   0  0  0  0  0  4           0  0  0
    1.5246    0.0000   -0.0000 C   0  0  0  0  0  4           0  0  0
    2.7301   -6.4993    1.4471 C   0  0  0  0  0  4           0  0  0
    4.9074   -6.4406    0.2041 C   0  0  0  0  0  4           0  0  0
    2.9275   -7.5497   -0.8226 C   0  0  0  0  0  4           0  0  0
  1 22  1  0     0  0
  2 23  1  0     0  0
  3 24  1  0     0  0
  3 25  1  0     0  0
  3 26  1  0     0  0
  4  8  2  0     0  0
  4  9  1  0     0  0
  4 22  1  0     0  0
  5 10  2  0     0  0
  5 11  1  0     0  0
  5 22  1  0     0  0
  6 12  2  0     0  0
  6 13  1  0     0  0
  6 23  1  0     0  0
  7 14  2  0     0  0
  7 15  1  0     0  0
  7 27  1  0     0  0
  8 16  1  0     0  0
  9 17  2  0     0  0
 10 18  1  0     0  0
 11 19  2  0     0  0
 12 14  1  0     0  0
 13 15  2  0     0  0
 16 20  2  0     0  0
 17 20  1  0     0  0
 18 21  2  0     0  0
 19 21  1  0     0  0
 22 28  1  0     0  0
 23 29  1  0     0  0
 24 30  1  0     0  0
 25 31  1  0     0  0
 26 32  1  0     0  0
 27 33  1  0     0  0
 27 34  1  0     0  0
 27 35  1  0     0  0
 28 30  1  0     0  0
 28 31  1  0     0  0
 29 32  1  0     0  0
M  END
> <standard_type>
pIC50

> <# Confs.>
25

> <canonical_smiles>
CC(C)(C1=CC=C(C(CCCN2CCC(C(C3=CC=CC=C3)(O)C4=CC=CC=C4)CC2)O)C=C1)C

> <standard_relation>
=

> <Publication_ID>
nan

> <predicted_activity_value>
nan

> <actual_activity_value>
1.2518119729937995

> <Compound>
Terfenadine

> <standard_units>
uM

> hash
14314180081394431565

$$$$
51
XXILIB    08252103503D 0   0.00000     0.00000

 35 38  0     1  0            999 V2000
   -2.8405   -0.2548    5.3196 O   0  0  0  0  0  2           0  0  0
    2.3977   -1.1174   -3.5337 O   0  0  0  0  0  2           0  0  0
   -0.6848    0.0000    1.2948 N   0  0  2  0  0  3           0  0  0
   -4.7086    0.9674    4.5085 C   0  0  0  0  0  4           0  0  0
   -2.8186    2.0930    5.7453 C   0  0  0  0  0  4           0  0  0
    2.1815   -2.5347   -1.6601 C   0  0  0  0  0  4           0  0  0
    2.9404   -5.0389   -0.5491 C   0  0  0  0  0  4           0  0  0
   -5.3647    2.0791    3.9464 C   0  0  0  0  0  4           0  0  0
   -5.4943   -0.1384    4.8746 C   0  0  0  0  0  4           0  0  0
   -2.4562    3.3747    5.2891 C   0  0  0  0  0  4           0  0  0
   -2.7549    1.8496    7.1276 C   0  0  0  0  0  4           0  0  0
    1.2196   -3.4967   -1.3343 C   0  0  0  0  0  4           0  0  0
    3.5280   -2.8330   -1.4221 C   0  0  0  0  0  4           0  0  0
    1.5926   -4.7284   -0.7836 C   0  0  0  0  0  4           0  0  0
    3.9002   -4.0634   -0.8713 C   0  0  0  0  0  4           0  0  0
   -6.7463    2.0770    3.7406 C   0  0  0  0  0  4           0  0  0
   -6.8769   -0.1403    4.6662 C   0  0  0  0  0  4           0  0  0
   -2.0656    4.3771    6.1800 C   0  0  0  0  0  4           0  0  0
   -2.3658    2.8543    8.0188 C   0  0  0  0  0  4           0  0  0
   -7.5027    0.9660    4.0994 C   0  0  0  0  0  4           0  0  0
   -2.0218    4.1172    7.5459 C   0  0  0  0  0  4           0  0  0
   -3.2146    1.0159    4.7404 C   0  0  1  0  0  4           0  0  0
    1.7646   -1.2151   -2.2557 C   0  0  1  0  0  4           0  0  0
   -2.1415   -0.0000    1.0958 C   0  0  0  0  0  4           0  0  0
   -0.2772    1.1469    2.1207 C   0  0  0  0  0  4           0  0  0
    0.0000    0.0000    0.0000 C   0  0  0  0  0  4           0  0  0
    3.3722   -6.3574    0.0533 C   0  0  2  0  0  4           0  0  0
   -2.4852    1.0747    3.3747 C   0  0  2  0  0  4           0  0  0
    2.1490    0.0000   -1.3967 C   0  0  0  0  0  4           0  0  0
   -2.8901   -0.0747    2.4293 C   0  0  0  0  0  4           0  0  0
   -0.9503    1.1098    3.4954 C   0  0  0  0  0  4           0  0  0
    1.5246    0.0000   -0.0000 C   0  0  0  0  0  4           0  0  0
    2.7301   -6.4993    1.4471 C   0  0  0  0  0  4           0  0  0
    4.9074   -6.4406    0.2041 C   0  0  0  0  0  4           0  0  0
    2.9275   -7.5497   -0.8226 C   0  0  0  0  0  4           0  0  0
  1 22  1  0     0  0
  2 23  1  0     0  0
  3 24  1  0     0  0
  3 25  1  0     0  0
  3 26  1  0     0  0
  4  8  2  0     0  0
  4  9  1  0     0  0
  4 22  1  0     0  0
  5 10  2  0     0  0
  5 11  1  0     0  0
  5 22  1  0     0  0
  6 12  2  0     0  0
  6 13  1  0     0  0
  6 23  1  0     0  0
  7 14  2  0     0  0
  7 15  1  0     0  0
  7 27  1  0     0  0
  8 16  1  0     0  0
  9 17  2  0     0  0
 10 18  1  0     0  0
 11 19  2  0     0  0
 12 14  1  0     0  0
 13 15  2  0     0  0
 16 20  2  0     0  0
 17 20  1  0     0  0
 18 21  2  0     0  0
 19 21  1  0     0  0
 22 28  1  0     0  0
 23 29  1  0     0  0
 24 30  1  0     0  0
 25 31  1  0     0  0
 26 32  1  0     0  0
 27 33  1  0     0  0
 27 34  1  0     0  0
 27 35  1  0     0  0
 28 30  1  0     0  0
 28 31  1  0     0  0
 29 32  1  0     0  0
M  END
> <standard_type>
pIC50

> <# Confs.>
25

> <canonical_smiles>
CC(C)(C1=CC=C(C(CCCN2CCC(C(C3=CC=CC=C3)(O)C4=CC=CC=C4)CC2)O)C=C1)C

> <standard_relation>
=

> <Publication_ID>
nan

> <predicted_activity_value>
nan

> <actual_activity_value>
1.2518119729937995

> <Compound>
Terfenadine

> <standard_units>
uM

> hash
14314180081394431565

$$$$
51
XXILIB    08252103503D 0   0.00000     0.00000

 35 38  0     1  0            999 V2000
   -3.0039    0.1481    5.2331 O   0  0  0  0  0  2           0  0  0
    4.1646    0.0000   -2.7438 O   0  0  0  0  0  2           0  0  0
   -0.6848   -0.0000    1.2948 N   0  0  2  0  0  3           0  0  0
   -1.2439    1.2955    6.3409 C   0  0  0  0  0  4           0  0  0
   -1.4742   -1.2150    6.4564 C   0  0  0  0  0  4           0  0  0
    4.2921    1.1999   -0.7165 C   0  0  0  0  0  4           0  0  0
    5.4612    3.4447    0.5778 C   0  0  0  0  0  4           0  0  0
    0.0686    1.4695    6.8200 C   0  0  0  0  0  4           0  0  0
   -2.1821    2.3016    6.6264 C   0  0  0  0  0  4           0  0  0
   -0.2725   -1.9485    6.4440 C   0  0  0  0  0  4           0  0  0
   -2.5285   -1.7017    7.2474 C   0  0  0  0  0  4           0  0  0
    5.1112    1.0355    0.4055 C   0  0  0  0  0  4           0  0  0
    4.0581    2.4977   -1.1851 C   0  0  0  0  0  4           0  0  0
    5.6839    2.1409    1.0455 C   0  0  0  0  0  4           0  0  0
    4.6300    3.6019   -0.5450 C   0  0  0  0  0  4           0  0  0
    0.4324    2.6115    7.5374 C   0  0  0  0  0  4           0  0  0
   -1.8164    3.4454    7.3426 C   0  0  0  0  0  4           0  0  0
   -0.1247   -3.1095    7.2065 C   0  0  0  0  0  4           0  0  0
   -2.3788   -2.8628    8.0120 C   0  0  0  0  0  4           0  0  0
   -0.5104    3.6008    7.7975 C   0  0  0  0  0  4           0  0  0
   -1.1780   -3.5661    7.9922 C   0  0  0  0  0  4           0  0  0
   -1.6076    0.0337    5.5903 C   0  0  1  0  0  4           0  0  0
    3.6860    0.0000   -1.3967 C   0  0  1  0  0  4           0  0  0
   -0.3107    1.1957    2.0641 C   0  0  0  0  0  4           0  0  0
   -0.3889   -1.2199    2.0616 C   0  0  0  0  0  4           0  0  0
    0.0000    0.0000   -0.0000 C   0  0  0  0  0  4           0  0  0
    6.0590    4.6583    1.2544 C   0  0  2  0  0  4           0  0  0
   -0.8416   -0.0012    4.2440 C   0  0  2  0  0  4           0  0  0
    2.1490    0.0000   -1.3967 C   0  0  0  0  0  4           0  0  0
   -1.0658    1.2662    3.3942 C   0  0  0  0  0  4           0  0  0
   -1.1537   -1.2427    3.3878 C   0  0  0  0  0  4           0  0  0
    1.5246    0.0000   -0.0000 C   0  0  0  0  0  4           0  0  0
    5.5528    4.7142    2.7090 C   0  0  0  0  0  4           0  0  0
    5.6564    5.9669    0.5390 C   0  0  0  0  0  4           0  0  0
    7.6023    4.5932    1.2674 C   0  0  0  0  0  4           0  0  0
  1 22  1  0     0  0
  2 23  1  0     0  0
  3 24  1  0     0  0
  3 25  1  0     0  0
  3 26  1  0     0  0
  4  8  2  0     0  0
  4  9  1  0     0  0
  4 22  1  0     0  0
  5 10  2  0     0  0
  5 11  1  0     0  0
  5 22  1  0     0  0
  6 12  2  0     0  0
  6 13  1  0     0  0
  6 23  1  0     0  0
  7 14  2  0     0  0
  7 15  1  0     0  0
  7 27  1  0     0  0
  8 16  1  0     0  0
  9 17  2  0     0  0
 10 18  1  0     0  0
 11 19  2  0     0  0
 12 14  1  0     0  0
 13 15  2  0     0  0
 16 20  2  0     0  0
 17 20  1  0     0  0
 18 21  2  0     0  0
 19 21  1  0     0  0
 22 28  1  0     0  0
 23 29  1  0     0  0
 24 30  1  0     0  0
 25 31  1  0     0  0
 26 32  1  0     0  0
 27 33  1  0     0  0
 27 34  1  0     0  0
 27 35  1  0     0  0
 28 30  1  0     0  0
 28 31  1  0     0  0
 29 32  1  0     0  0
M  END
> <standard_type>
pIC50

> <# Confs.>
25

> <canonical_smiles>
CC(C)(C1=CC=C(C(CCCN2CCC(C(C3=CC=CC=C3)(O)C4=CC=CC=C4)CC2)O)C=C1)C

> <standard_relation>
=

> <Publication_ID>
nan

> <predicted_activity_value>
nan

> <actual_activity_value>
1.2518119729937995

> <Compound>
Terfenadine

> <standard_units>
uM

> hash
14314180081394431565

$$$$
51
XXILIB    08252103503D 0   0.00000     0.00000

 35 38  0     1  0            999 V2000
   -2.8405   -0.2548    5.3196 O   0  0  0  0  0  2           0  0  0
    4.1646   -0.0429    1.3719 O   0  0  0  0  0  2           0  0  0
   -0.6848    0.0000    1.2948 N   0  0  2  0  0  3           0  0  0
   -4.7086    0.9674    4.5085 C   0  0  0  0  0  4           0  0  0
   -2.8186    2.0930    5.7453 C   0  0  0  0  0  4           0  0  0
    4.2921   -2.3985    1.3974 C   0  0  0  0  0  4           0  0  0
    5.4612   -4.6418    2.6943 C   0  0  0  0  0  4           0  0  0
   -5.3647    2.0791    3.9464 C   0  0  0  0  0  4           0  0  0
   -5.4943   -0.1384    4.8746 C   0  0  0  0  0  4           0  0  0
   -2.4562    3.3747    5.2891 C   0  0  0  0  0  4           0  0  0
   -2.7549    1.8496    7.1276 C   0  0  0  0  0  4           0  0  0
    5.1112   -3.2880    0.6941 C   0  0  0  0  0  4           0  0  0
    4.0581   -2.6416    2.7557 C   0  0  0  0  0  4           0  0  0
    5.6839   -4.3949    1.3314 C   0  0  0  0  0  4           0  0  0
    4.6300   -3.7480    3.3919 C   0  0  0  0  0  4           0  0  0
   -6.7463    2.0770    3.7406 C   0  0  0  0  0  4           0  0  0
   -6.8769   -0.1403    4.6662 C   0  0  0  0  0  4           0  0  0
   -2.0656    4.3771    6.1800 C   0  0  0  0  0  4           0  0  0
   -2.3658    2.8543    8.0188 C   0  0  0  0  0  4           0  0  0
   -7.5027    0.9660    4.0994 C   0  0  0  0  0  4           0  0  0
   -2.0218    4.1172    7.5459 C   0  0  0  0  0  4           0  0  0
   -3.2146    1.0159    4.7404 C   0  0  1  0  0  4           0  0  0
    3.6860   -1.2095    0.6983 C   0  0  1  0  0  4           0  0  0
   -2.1415   -0.0000    1.0958 C   0  0  0  0  0  4           0  0  0
   -0.2772    1.1469    2.1207 C   0  0  0  0  0  4           0  0  0
    0.0000    0.0000    0.0000 C   0  0  0  0  0  4           0  0  0
    6.0590   -5.8346    3.4070 C   0  0  2  0  0  4           0  0  0
   -2.4852    1.0747    3.3747 C   0  0  2  0  0  4           0  0  0
    2.1490   -1.2095    0.6983 C   0  0  0  0  0  4           0  0  0
   -2.8901   -0.0747    2.4293 C   0  0  0  0  0  4           0  0  0
   -0.9503    1.1098    3.4954 C   0  0  0  0  0  4           0  0  0
    1.5246   -0.0000   -0.0000 C   0  0  0  0  0  4           0  0  0
    5.5528   -7.1223    2.7281 C   0  0  0  0  0  4           0  0  0
    5.6564   -5.8693    4.8980 C   0  0  0  0  0  4           0  0  0
    7.6023   -5.8132    3.3441 C   0  0  0  0  0  4           0  0  0
  1 22  1  0     0  0
  2 23  1  0     0  0
  3 24  1  0     0  0
  3 25  1  0     0  0
  3 26  1  0     0  0
  4  8  2  0     0  0
  4  9  1  0     0  0
  4 22  1  0     0  0
  5 10  2  0     0  0
  5 11  1  0     0  0
  5 22  1  0     0  0
  6 12  2  0     0  0
  6 13  1  0     0  0
  6 23  1  0     0  0
  7 14  2  0     0  0
  7 15  1  0     0  0
  7 27  1  0     0  0
  8 16  1  0     0  0
  9 17  2  0     0  0
 10 18  1  0     0  0
 11 19  2  0     0  0
 12 14  1  0     0  0
 13 15  2  0     0  0
 16 20  2  0     0  0
 17 20  1  0     0  0
 18 21  2  0     0  0
 19 21  1  0     0  0
 22 28  1  0     0  0
 23 29  1  0     0  0
 24 30  1  0     0  0
 25 31  1  0     0  0
 26 32  1  0     0  0
 27 33  1  0     0  0
 27 34  1  0     0  0
 27 35  1  0     0  0
 28 30  1  0     0  0
 28 31  1  0     0  0
 29 32  1  0     0  0
M  END
> <standard_type>
pIC50

> <# Confs.>
25

> <canonical_smiles>
CC(C)(C1=CC=C(C(CCCN2CCC(C(C3=CC=CC=C3)(O)C4=CC=CC=C4)CC2)O)C=C1)C

> <standard_relation>
=

> <Publication_ID>
nan

> <predicted_activity_value>
nan

> <actual_activity_value>
1.2518119729937995

> <Compound>
Terfenadine

> <standard_units>
uM

> hash
14314180081394431565

$$$$
51
XXILIB    08252103503D 0   0.00000     0.00000

 35 38  0     1  0            999 V2000
   -2.6137    0.1068    5.4395 O   0  0  0  0  0  2           0  0  0
    4.1646    1.1666   -0.7231 O   0  0  0  0  0  2           0  0  0
   -0.6848    0.0000    1.2948 N   0  0  2  0  0  3           0  0  0
   -2.7250   -2.2629    5.5576 C   0  0  0  0  0  4           0  0  0
   -4.6788   -0.8781    4.7615 C   0  0  0  0  0  4           0  0  0
    4.2921   -1.1890   -0.6976 C   0  0  0  0  0  4           0  0  0
    5.4490   -3.4427    0.5922 C   0  0  0  0  0  4           0  0  0
   -3.1147   -3.5486    5.1364 C   0  0  0  0  0  4           0  0  0
   -1.9703   -2.1633    6.7384 C   0  0  0  0  0  4           0  0  0
   -5.4396   -1.4262    3.7112 C   0  0  0  0  0  4           0  0  0
   -5.3604   -0.1479    5.7496 C   0  0  0  0  0  4           0  0  0
    4.5556   -2.3654   -1.4072 C   0  0  0  0  0  4           0  0  0
    4.6083   -1.1490    0.6652 C   0  0  0  0  0  4           0  0  0
    5.1216   -3.4767   -0.7716 C   0  0  0  0  0  4           0  0  0
    5.1732   -2.2598    1.3000 C   0  0  0  0  0  4           0  0  0
   -2.7478   -4.6886    5.8554 C   0  0  0  0  0  4           0  0  0
   -1.6016   -3.3051    7.4562 C   0  0  0  0  0  4           0  0  0
   -6.8265   -1.2676    3.6620 C   0  0  0  0  0  4           0  0  0
   -6.7490    0.0085    5.7006 C   0  0  0  0  0  4           0  0  0
   -1.9895   -4.5669    7.0152 C   0  0  0  0  0  4           0  0  0
   -7.4818   -0.5511    4.6582 C   0  0  0  0  0  4           0  0  0
   -3.1631   -1.0496    4.7676 C   0  0  1  0  0  4           0  0  0
    3.6860    0.0000   -1.3967 C   0  0  1  0  0  4           0  0  0
   -0.3107   -1.1957    2.0641 C   0  0  0  0  0  4           0  0  0
   -2.1450    0.0729    1.1328 C   0  0  0  0  0  4           0  0  0
    0.0000    0.0000    0.0000 C   0  0  0  0  0  4           0  0  0
    6.0527   -4.6309    1.3075 C   0  0  2  0  0  4           0  0  0
   -2.4870   -1.0735    3.3738 C   0  0  2  0  0  4           0  0  0
    2.1490    0.0000   -1.3967 C   0  0  0  0  0  4           0  0  0
   -0.9514   -1.1915    3.4547 C   0  0  0  0  0  4           0  0  0
   -2.8529    0.1329    2.4891 C   0  0  0  0  0  4           0  0  0
    1.5246   -0.0000   -0.0000 C   0  0  0  0  0  4           0  0  0
    5.0745   -5.8178    1.2092 C   0  0  0  0  0  4           0  0  0
    6.3144   -4.3266    2.7992 C   0  0  0  0  0  4           0  0  0
    7.4004   -5.0439    0.6755 C   0  0  0  0  0  4           0  0  0
  1 22  1  0     0  0
  2 23  1  0     0  0
  3 24  1  0     0  0
  3 25  1  0     0  0
  3 26  1  0     0  0
  4  8  2  0     0  0
  4  9  1  0     0  0
  4 22  1  0     0  0
  5 10  2  0     0  0
  5 11  1  0     0  0
  5 22  1  0     0  0
  6 12  2  0     0  0
  6 13  1  0     0  0
  6 23  1  0     0  0
  7 14  2  0     0  0
  7 15  1  0     0  0
  7 27  1  0     0  0
  8 16  1  0     0  0
  9 17  2  0     0  0
 10 18  1  0     0  0
 11 19  2  0     0  0
 12 14  1  0     0  0
 13 15  2  0     0  0
 16 20  2  0     0  0
 17 20  1  0     0  0
 18 21  2  0     0  0
 19 21  1  0     0  0
 22 28  1  0     0  0
 23 29  1  0     0  0
 24 30  1  0     0  0
 25 31  1  0     0  0
 26 32  1  0     0  0
 27 33  1  0     0  0
 27 34  1  0     0  0
 27 35  1  0     0  0
 28 30  1  0     0  0
 28 31  1  0     0  0
 29 32  1  0     0  0
M  END
> <standard_type>
pIC50

> <# Confs.>
25

> <canonical_smiles>
CC(C)(C1=CC=C(C(CCCN2CCC(C(C3=CC=CC=C3)(O)C4=CC=CC=C4)CC2)O)C=C1)C

> <standard_relation>
=

> <Publication_ID>
nan

> <predicted_activity_value>
nan

> <actual_activity_value>
1.2518119729937995

> <Compound>
Terfenadine

> <standard_units>
uM

> hash
14314180081394431565

$$$$
51
XXILIB    08252103503D 0   0.00000     0.00000

 35 38  0     1  0            999 V2000
   -2.6137    0.1068    5.4395 O   0  0  0  0  0  2           0  0  0
    4.1646   -1.1666   -0.7231 O   0  0  0  0  0  2           0  0  0
   -0.6848    0.0000    1.2948 N   0  0  2  0  0  3           0  0  0
   -2.7250   -2.2629    5.5576 C   0  0  0  0  0  4           0  0  0
   -4.6788   -0.8781    4.7615 C   0  0  0  0  0  4           0  0  0
    4.2921   -0.0110   -2.7759 C   0  0  0  0  0  4           0  0  0
    5.4490   -0.0010   -5.3725 C   0  0  0  0  0  4           0  0  0
   -3.1147   -3.5486    5.1364 C   0  0  0  0  0  4           0  0  0
   -1.9703   -2.1633    6.7384 C   0  0  0  0  0  4           0  0  0
   -5.4396   -1.4262    3.7112 C   0  0  0  0  0  4           0  0  0
   -5.3604   -0.1479    5.7496 C   0  0  0  0  0  4           0  0  0
    4.5556    1.1918   -3.4399 C   0  0  0  0  0  4           0  0  0
    4.6083   -1.2111   -3.4226 C   0  0  0  0  0  4           0  0  0
    5.1216    1.1970   -4.7201 C   0  0  0  0  0  4           0  0  0
    5.1732   -1.2055   -4.7020 C   0  0  0  0  0  4           0  0  0
   -2.7478   -4.6886    5.8554 C   0  0  0  0  0  4           0  0  0
   -1.6016   -3.3051    7.4562 C   0  0  0  0  0  4           0  0  0
   -6.8265   -1.2676    3.6620 C   0  0  0  0  0  4           0  0  0
   -6.7490    0.0085    5.7006 C   0  0  0  0  0  4           0  0  0
   -1.9895   -4.5669    7.0152 C   0  0  0  0  0  4           0  0  0
   -7.4818   -0.5511    4.6582 C   0  0  0  0  0  4           0  0  0
   -3.1631   -1.0496    4.7676 C   0  0  1  0  0  4           0  0  0
    3.6860   -0.0000   -1.3967 C   0  0  1  0  0  4           0  0  0
   -0.3107   -1.1957    2.0641 C   0  0  0  0  0  4           0  0  0
   -2.1450    0.0729    1.1328 C   0  0  0  0  0  4           0  0  0
    0.0000    0.0000    0.0000 C   0  0  0  0  0  4           0  0  0
    6.0527   -0.0264   -6.7592 C   0  0  2  0  0  4           0  0  0
   -2.4870   -1.0735    3.3738 C   0  0  2  0  0  4           0  0  0
    2.1490    0.0000   -1.3967 C   0  0  0  0  0  4           0  0  0
   -0.9514   -1.1915    3.4547 C   0  0  0  0  0  4           0  0  0
   -2.8529    0.1329    2.4891 C   0  0  0  0  0  4           0  0  0
    1.5246    0.0000   -0.0000 C   0  0  0  0  0  4           0  0  0
    5.0745    0.6522   -7.7379 C   0  0  0  0  0  4           0  0  0
    6.3144   -1.4704   -7.2416 C   0  0  0  0  0  4           0  0  0
    7.4004    0.7275   -6.8009 C   0  0  0  0  0  4           0  0  0
  1 22  1  0     0  0
  2 23  1  0     0  0
  3 24  1  0     0  0
  3 25  1  0     0  0
  3 26  1  0     0  0
  4  8  2  0     0  0
  4  9  1  0     0  0
  4 22  1  0     0  0
  5 10  2  0     0  0
  5 11  1  0     0  0
  5 22  1  0     0  0
  6 12  2  0     0  0
  6 13  1  0     0  0
  6 23  1  0     0  0
  7 14  2  0     0  0
  7 15  1  0     0  0
  7 27  1  0     0  0
  8 16  1  0     0  0
  9 17  2  0     0  0
 10 18  1  0     0  0
 11 19  2  0     0  0
 12 14  1  0     0  0
 13 15  2  0     0  0
 16 20  2  0     0  0
 17 20  1  0     0  0
 18 21  2  0     0  0
 19 21  1  0     0  0
 22 28  1  0     0  0
 23 29  1  0     0  0
 24 30  1  0     0  0
 25 31  1  0     0  0
 26 32  1  0     0  0
 27 33  1  0     0  0
 27 34  1  0     0  0
 27 35  1  0     0  0
 28 30  1  0     0  0
 28 31  1  0     0  0
 29 32  1  0     0  0
M  END
> <standard_type>
pIC50

> <# Confs.>
25

> <canonical_smiles>
CC(C)(C1=CC=C(C(CCCN2CCC(C(C3=CC=CC=C3)(O)C4=CC=CC=C4)CC2)O)C=C1)C

> <standard_relation>
=

> <Publication_ID>
nan

> <predicted_activity_value>
nan

> <actual_activity_value>
1.2518119729937995

> <Compound>
Terfenadine

> <standard_units>
uM

> hash
14314180081394431565

$$$$
51
XXILIB    08252103503D 0   0.00000     0.00000

 35 38  0     1  0            999 V2000
   -2.8405   -0.2548    5.3196 O   0  0  0  0  0  2           0  0  0
    4.1646   -1.1666   -0.7231 O   0  0  0  0  0  2           0  0  0
   -0.6848    0.0000    1.2948 N   0  0  2  0  0  3           0  0  0
   -4.7086    0.9674    4.5085 C   0  0  0  0  0  4           0  0  0
   -2.8186    2.0930    5.7453 C   0  0  0  0  0  4           0  0  0
    4.2921   -0.0110   -2.7759 C   0  0  0  0  0  4           0  0  0
    5.4490   -0.0010   -5.3725 C   0  0  0  0  0  4           0  0  0
   -5.3647    2.0791    3.9464 C   0  0  0  0  0  4           0  0  0
   -5.4943   -0.1384    4.8746 C   0  0  0  0  0  4           0  0  0
   -2.4562    3.3747    5.2891 C   0  0  0  0  0  4           0  0  0
   -2.7549    1.8496    7.1276 C   0  0  0  0  0  4           0  0  0
    4.5556    1.1918   -3.4399 C   0  0  0  0  0  4           0  0  0
    4.6083   -1.2111   -3.4226 C   0  0  0  0  0  4           0  0  0
    5.1216    1.1970   -4.7201 C   0  0  0  0  0  4           0  0  0
    5.1732   -1.2055   -4.7020 C   0  0  0  0  0  4           0  0  0
   -6.7463    2.0770    3.7406 C   0  0  0  0  0  4           0  0  0
   -6.8769   -0.1403    4.6662 C   0  0  0  0  0  4           0  0  0
   -2.0656    4.3771    6.1800 C   0  0  0  0  0  4           0  0  0
   -2.3658    2.8543    8.0188 C   0  0  0  0  0  4           0  0  0
   -7.5027    0.9660    4.0994 C   0  0  0  0  0  4           0  0  0
   -2.0218    4.1172    7.5459 C   0  0  0  0  0  4           0  0  0
   -3.2146    1.0159    4.7404 C   0  0  1  0  0  4           0  0  0
    3.6860   -0.0000   -1.3967 C   0  0  1  0  0  4           0  0  0
   -2.1415   -0.0000    1.0958 C   0  0  0  0  0  4           0  0  0
   -0.2772    1.1469    2.1207 C   0  0  0  0  0  4           0  0  0
    0.0000    0.0000    0.0000 C   0  0  0  0  0  4           0  0  0
    6.0527   -0.0264   -6.7592 C   0  0  2  0  0  4           0  0  0
   -2.4852    1.0747    3.3747 C   0  0  2  0  0  4           0  0  0
    2.1490    0.0000   -1.3967 C   0  0  0  0  0  4           0  0  0
   -2.8901   -0.0747    2.4293 C   0  0  0  0  0  4           0  0  0
   -0.9503    1.1098    3.4954 C   0  0  0  0  0  4           0  0  0
    1.5246    0.0000   -0.0000 C   0  0  0  0  0  4           0  0  0
    5.0745    0.6522   -7.7379 C   0  0  0  0  0  4           0  0  0
    6.3144   -1.4704   -7.2416 C   0  0  0  0  0  4           0  0  0
    7.4004    0.7275   -6.8009 C   0  0  0  0  0  4           0  0  0
  1 22  1  0     0  0
  2 23  1  0     0  0
  3 24  1  0     0  0
  3 25  1  0     0  0
  3 26  1  0     0  0
  4  8  2  0     0  0
  4  9  1  0     0  0
  4 22  1  0     0  0
  5 10  2  0     0  0
  5 11  1  0     0  0
  5 22  1  0     0  0
  6 12  2  0     0  0
  6 13  1  0     0  0
  6 23  1  0     0  0
  7 14  2  0     0  0
  7 15  1  0     0  0
  7 27  1  0     0  0
  8 16  1  0     0  0
  9 17  2  0     0  0
 10 18  1  0     0  0
 11 19  2  0     0  0
 12 14  1  0     0  0
 13 15  2  0     0  0
 16 20  2  0     0  0
 17 20  1  0     0  0
 18 21  2  0     0  0
 19 21  1  0     0  0
 22 28  1  0     0  0
 23 29  1  0     0  0
 24 30  1  0     0  0
 25 31  1  0     0  0
 26 32  1  0     0  0
 27 33  1  0     0  0
 27 34  1  0     0  0
 27 35  1  0     0  0
 28 30  1  0     0  0
 28 31  1  0     0  0
 29 32  1  0     0  0
M  END
> <standard_type>
pIC50

> <# Confs.>
25

> <canonical_smiles>
CC(C)(C1=CC=C(C(CCCN2CCC(C(C3=CC=CC=C3)(O)C4=CC=CC=C4)CC2)O)C=C1)C

> <standard_relation>
=

> <Publication_ID>
nan

> <predicted_activity_value>
nan

> <actual_activity_value>
1.2518119729937995

> <Compound>
Terfenadine

> <standard_units>
uM

> hash
14314180081394431565

$$$$
51
XXILIB    08252103503D 0   0.00000     0.00000

 35 38  0     1  0            999 V2000
   -2.3012   -4.0341   -0.1983 O   0  0  0  0  0  2           0  0  0
    2.3977    3.6190    0.7991 O   0  0  0  0  0  2           0  0  0
   -0.6848   -0.0000    1.2948 N   0  0  2  0  0  3           0  0  0
   -4.3398   -3.7972    0.9972 C   0  0  0  0  0  4           0  0  0
   -2.3885   -5.0907    1.9395 C   0  0  0  0  0  4           0  0  0
    2.1815    2.7050   -1.3651 C   0  0  0  0  0  4           0  0  0
    2.9404    2.9950   -4.0892 C   0  0  0  0  0  4           0  0  0
   -5.1396   -3.6389    2.1451 C   0  0  0  0  0  4           0  0  0
   -4.9919   -3.9227   -0.2409 C   0  0  0  0  0  4           0  0  0
   -2.1791   -4.9729    3.3268 C   0  0  0  0  0  4           0  0  0
   -2.1286   -6.3361    1.3432 C   0  0  0  0  0  4           0  0  0
    1.2196    2.9039   -2.3611 C   0  0  0  0  0  4           0  0  0
    3.5280    2.6481   -1.7424 C   0  0  0  0  0  4           0  0  0
    1.5926    3.0428   -3.7031 C   0  0  0  0  0  4           0  0  0
    3.9002    2.7863   -3.0834 C   0  0  0  0  0  4           0  0  0
   -6.5327   -3.5882    2.0559 C   0  0  0  0  0  4           0  0  0
   -6.3863   -3.8696   -0.3294 C   0  0  0  0  0  4           0  0  0
   -1.7470   -6.0607    4.0891 C   0  0  0  0  0  4           0  0  0
   -1.6982   -7.4249    2.1075 C   0  0  0  0  0  4           0  0  0
   -7.1564   -3.7021    0.8177 C   0  0  0  0  0  4           0  0  0
   -1.5079   -7.2879    3.4793 C   0  0  0  0  0  4           0  0  0
   -2.8355   -3.8738    1.1355 C   0  0  1  0  0  4           0  0  0
    1.7646    2.5610    0.0755 C   0  0  1  0  0  4           0  0  0
   -2.1495   -0.0000    1.1887 C   0  0  0  0  0  4           0  0  0
   -0.2348   -1.1015    2.1553 C   0  0  0  0  0  4           0  0  0
    0.0000    0.0000    0.0000 C   0  0  0  0  0  4           0  0  0
    3.3722    3.1326   -5.5323 C   0  0  2  0  0  4           0  0  0
   -2.2950   -2.5069    1.6329 C   0  0  2  0  0  4           0  0  0
    2.1490    1.2095    0.6983 C   0  0  0  0  0  4           0  0  0
   -2.7463   -1.3351    0.7322 C   0  0  0  0  0  4           0  0  0
   -0.7532   -2.4797    1.7310 C   0  0  0  0  0  4           0  0  0
    1.5246   -0.0000    0.0000 C   0  0  0  0  0  4           0  0  0
    2.7301    1.9965   -6.3521 C   0  0  0  0  0  4           0  0  0
    4.9074    3.0435   -5.6798 C   0  0  0  0  0  4           0  0  0
    2.9275    4.4872   -6.1269 C   0  0  0  0  0  4           0  0  0
  1 22  1  0     0  0
  2 23  1  0     0  0
  3 24  1  0     0  0
  3 25  1  0     0  0
  3 26  1  0     0  0
  4  8  2  0     0  0
  4  9  1  0     0  0
  4 22  1  0     0  0
  5 10  2  0     0  0
  5 11  1  0     0  0
  5 22  1  0     0  0
  6 12  2  0     0  0
  6 13  1  0     0  0
  6 23  1  0     0  0
  7 14  2  0     0  0
  7 15  1  0     0  0
  7 27  1  0     0  0
  8 16  1  0     0  0
  9 17  2  0     0  0
 10 18  1  0     0  0
 11 19  2  0     0  0
 12 14  1  0     0  0
 13 15  2  0     0  0
 16 20  2  0     0  0
 17 20  1  0     0  0
 18 21  2  0     0  0
 19 21  1  0     0  0
 22 28  1  0     0  0
 23 29  1  0     0  0
 24 30  1  0     0  0
 25 31  1  0     0  0
 26 32  1  0     0  0
 27 33  1  0     0  0
 27 34  1  0     0  0
 27 35  1  0     0  0
 28 30  1  0     0  0
 28 31  1  0     0  0
 29 32  1  0     0  0
M  END
> <standard_type>
pIC50

> <# Confs.>
25

> <canonical_smiles>
CC(C)(C1=CC=C(C(CCCN2CCC(C(C3=CC=CC=C3)(O)C4=CC=CC=C4)CC2)O)C=C1)C

> <standard_relation>
=

> <Publication_ID>
nan

> <predicted_activity_value>
nan

> <actual_activity_value>
1.2518119729937995

> <Compound>
Terfenadine

> <standard_units>
uM

> hash
14314180081394431565

$$$$
51
XXILIB    08252103503D 0   0.00000     0.00000

 35 38  0     1  0            999 V2000
   -2.8405   -0.2548    5.3196 O   0  0  0  0  0  2           0  0  0
    4.1646    1.1666   -0.7231 O   0  0  0  0  0  2           0  0  0
   -0.6848    0.0000    1.2948 N   0  0  2  0  0  3           0  0  0
   -4.7086    0.9674    4.5085 C   0  0  0  0  0  4           0  0  0
   -2.8186    2.0930    5.7453 C   0  0  0  0  0  4           0  0  0
    4.2921   -1.1890   -0.6976 C   0  0  0  0  0  4           0  0  0
    5.4490   -3.4427    0.5922 C   0  0  0  0  0  4           0  0  0
   -5.3647    2.0791    3.9464 C   0  0  0  0  0  4           0  0  0
   -5.4943   -0.1384    4.8746 C   0  0  0  0  0  4           0  0  0
   -2.4562    3.3747    5.2891 C   0  0  0  0  0  4           0  0  0
   -2.7549    1.8496    7.1276 C   0  0  0  0  0  4           0  0  0
    4.5556   -2.3654   -1.4072 C   0  0  0  0  0  4           0  0  0
    4.6083   -1.1490    0.6652 C   0  0  0  0  0  4           0  0  0
    5.1216   -3.4767   -0.7716 C   0  0  0  0  0  4           0  0  0
    5.1732   -2.2598    1.3000 C   0  0  0  0  0  4           0  0  0
   -6.7463    2.0770    3.7406 C   0  0  0  0  0  4           0  0  0
   -6.8769   -0.1403    4.6662 C   0  0  0  0  0  4           0  0  0
   -2.0656    4.3771    6.1800 C   0  0  0  0  0  4           0  0  0
   -2.3658    2.8543    8.0188 C   0  0  0  0  0  4           0  0  0
   -7.5027    0.9660    4.0994 C   0  0  0  0  0  4           0  0  0
   -2.0218    4.1172    7.5459 C   0  0  0  0  0  4           0  0  0
   -3.2146    1.0159    4.7404 C   0  0  1  0  0  4           0  0  0
    3.6860    0.0000   -1.3967 C   0  0  1  0  0  4           0  0  0
   -2.1415   -0.0000    1.0958 C   0  0  0  0  0  4           0  0  0
   -0.2772    1.1469    2.1207 C   0  0  0  0  0  4           0  0  0
    0.0000    0.0000    0.0000 C   0  0  0  0  0  4           0  0  0
    6.0527   -4.6309    1.3075 C   0  0  2  0  0  4           0  0  0
   -2.4852    1.0747    3.3747 C   0  0  2  0  0  4           0  0  0
    2.1490    0.0000   -1.3967 C   0  0  0  0  0  4           0  0  0
   -2.8901   -0.0747    2.4293 C   0  0  0  0  0  4           0  0  0
   -0.9503    1.1098    3.4954 C   0  0  0  0  0  4           0  0  0
    1.5246   -0.0000   -0.0000 C   0  0  0  0  0  4           0  0  0
    5.0745   -5.8178    1.2092 C   0  0  0  0  0  4           0  0  0
    6.3144   -4.3266    2.7992 C   0  0  0  0  0  4           0  0  0
    7.4004   -5.0439    0.6755 C   0  0  0  0  0  4           0  0  0
  1 22  1  0     0  0
  2 23  1  0     0  0
  3 24  1  0     0  0
  3 25  1  0     0  0
  3 26  1  0     0  0
  4  8  2  0     0  0
  4  9  1  0     0  0
  4 22  1  0     0  0
  5 10  2  0     0  0
  5 11  1  0     0  0
  5 22  1  0     0  0
  6 12  2  0     0  0
  6 13  1  0     0  0
  6 23  1  0     0  0
  7 14  2  0     0  0
  7 15  1  0     0  0
  7 27  1  0     0  0
  8 16  1  0     0  0
  9 17  2  0     0  0
 10 18  1  0     0  0
 11 19  2  0     0  0
 12 14  1  0     0  0
 13 15  2  0     0  0
 16 20  2  0     0  0
 17 20  1  0     0  0
 18 21  2  0     0  0
 19 21  1  0     0  0
 22 28  1  0     0  0
 23 29  1  0     0  0
 24 30  1  0     0  0
 25 31  1  0     0  0
 26 32  1  0     0  0
 27 33  1  0     0  0
 27 34  1  0     0  0
 27 35  1  0     0  0
 28 30  1  0     0  0
 28 31  1  0     0  0
 29 32  1  0     0  0
M  END
> <standard_type>
pIC50

> <# Confs.>
25

> <canonical_smiles>
CC(C)(C1=CC=C(C(CCCN2CCC(C(C3=CC=CC=C3)(O)C4=CC=CC=C4)CC2)O)C=C1)C

> <standard_relation>
=

> <Publication_ID>
nan

> <predicted_activity_value>
nan

> <actual_activity_value>
1.2518119729937995

> <Compound>
Terfenadine

> <standard_units>
uM

> hash
14314180081394431565

$$$$
51
XXILIB    08252103503D 0   0.00000     0.00000

 35 38  0     1  0            999 V2000
   -2.5693    3.8590   -0.3401 O   0  0  0  0  0  2           0  0  0
    4.1646   -2.3762    1.3719 O   0  0  0  0  0  2           0  0  0
   -0.6848    0.0000    1.2948 N   0  0  2  0  0  3           0  0  0
   -2.7781    4.8172    1.8232 C   0  0  0  0  0  4           0  0  0
   -4.6884    3.5886    0.7231 C   0  0  0  0  0  4           0  0  0
    4.2921   -1.2205   -0.6809 C   0  0  0  0  0  4           0  0  0
    5.4612   -1.2220   -3.2721 C   0  0  0  0  0  4           0  0  0
   -3.2309    4.8855    3.1546 C   0  0  0  0  0  4           0  0  0
   -1.9944    5.8804    1.3444 C   0  0  0  0  0  4           0  0  0
   -5.4943    2.8076    1.5734 C   0  0  0  0  0  4           0  0  0
   -5.3169    4.2537   -0.3430 C   0  0  0  0  0  4           0  0  0
    5.1112   -0.1666   -1.0995 C   0  0  0  0  0  4           0  0  0
    4.0581   -2.2752   -1.5705 C   0  0  0  0  0  4           0  0  0
    5.6839   -0.1651   -2.3768 C   0  0  0  0  0  4           0  0  0
    4.6300   -2.2730   -2.8468 C   0  0  0  0  0  4           0  0  0
   -2.8970    5.9628    3.9788 C   0  0  0  0  0  4           0  0  0
   -1.6589    6.9572    2.1709 C   0  0  0  0  0  4           0  0  0
   -6.8740    2.7121    1.3775 C   0  0  0  0  0  4           0  0  0
   -6.6984    4.1592   -0.5370 C   0  0  0  0  0  4           0  0  0
   -2.1093    6.9985    3.4871 C   0  0  0  0  0  4           0  0  0
   -7.4766    3.3895    0.3225 C   0  0  0  0  0  4           0  0  0
   -3.1815    3.6478    0.9525 C   0  0  1  0  0  4           0  0  0
    3.6860   -1.2095    0.6983 C   0  0  1  0  0  4           0  0  0
   -0.3669    1.1643    2.1315 C   0  0  0  0  0  4           0  0  0
   -2.1389   -0.1422    1.1482 C   0  0  0  0  0  4           0  0  0
    0.0000   -0.0000    0.0000 C   0  0  0  0  0  4           0  0  0
    6.0590   -1.2428   -4.6614 C   0  0  2  0  0  4           0  0  0
   -2.5364    2.3492    1.5052 C   0  0  2  0  0  4           0  0  0
    2.1490   -1.2095    0.6983 C   0  0  0  0  0  4           0  0  0
   -1.0033    2.4735    1.6541 C   0  0  0  0  0  4           0  0  0
   -2.8417    1.1156    0.6264 C   0  0  0  0  0  4           0  0  0
    1.5246   -0.0000    0.0000 C   0  0  0  0  0  4           0  0  0
    5.5528   -0.0110   -5.4371 C   0  0  0  0  0  4           0  0  0
    5.6564   -2.5166   -5.4370 C   0  0  0  0  0  4           0  0  0
    7.6023   -1.1990   -4.6115 C   0  0  0  0  0  4           0  0  0
  1 22  1  0     0  0
  2 23  1  0     0  0
  3 24  1  0     0  0
  3 25  1  0     0  0
  3 26  1  0     0  0
  4  8  2  0     0  0
  4  9  1  0     0  0
  4 22  1  0     0  0
  5 10  2  0     0  0
  5 11  1  0     0  0
  5 22  1  0     0  0
  6 12  2  0     0  0
  6 13  1  0     0  0
  6 23  1  0     0  0
  7 14  2  0     0  0
  7 15  1  0     0  0
  7 27  1  0     0  0
  8 16  1  0     0  0
  9 17  2  0     0  0
 10 18  1  0     0  0
 11 19  2  0     0  0
 12 14  1  0     0  0
 13 15  2  0     0  0
 16 20  2  0     0  0
 17 20  1  0     0  0
 18 21  2  0     0  0
 19 21  1  0     0  0
 22 28  1  0     0  0
 23 29  1  0     0  0
 24 30  1  0     0  0
 25 31  1  0     0  0
 26 32  1  0     0  0
 27 33  1  0     0  0
 27 34  1  0     0  0
 27 35  1  0     0  0
 28 30  1  0     0  0
 28 31  1  0     0  0
 29 32  1  0     0  0
M  END
> <standard_type>
pIC50

> <# Confs.>
25

> <canonical_smiles>
CC(C)(C1=CC=C(C(CCCN2CCC(C(C3=CC=CC=C3)(O)C4=CC=CC=C4)CC2)O)C=C1)C

> <standard_relation>
=

> <Publication_ID>
nan

> <predicted_activity_value>
nan

> <actual_activity_value>
1.2518119729937995

> <Compound>
Terfenadine

> <standard_units>
uM

> hash
14314180081394431565

$$$$
51
XXILIB    08252103503D 0   0.00000     0.00000

 35 38  0     1  0            999 V2000
   -3.0039    0.1481    5.2331 O   0  0  0  0  0  2           0  0  0
    4.1646    1.1666   -0.7231 O   0  0  0  0  0  2           0  0  0
   -0.6848   -0.0000    1.2948 N   0  0  2  0  0  3           0  0  0
   -1.2439    1.2955    6.3409 C   0  0  0  0  0  4           0  0  0
   -1.4742   -1.2150    6.4564 C   0  0  0  0  0  4           0  0  0
    4.2921   -1.1890   -0.6976 C   0  0  0  0  0  4           0  0  0
    5.4490   -3.4427    0.5922 C   0  0  0  0  0  4           0  0  0
    0.0686    1.4695    6.8200 C   0  0  0  0  0  4           0  0  0
   -2.1821    2.3016    6.6264 C   0  0  0  0  0  4           0  0  0
   -0.2725   -1.9485    6.4440 C   0  0  0  0  0  4           0  0  0
   -2.5285   -1.7017    7.2474 C   0  0  0  0  0  4           0  0  0
    4.5556   -2.3654   -1.4072 C   0  0  0  0  0  4           0  0  0
    4.6083   -1.1490    0.6652 C   0  0  0  0  0  4           0  0  0
    5.1216   -3.4767   -0.7716 C   0  0  0  0  0  4           0  0  0
    5.1732   -2.2598    1.3000 C   0  0  0  0  0  4           0  0  0
    0.4324    2.6115    7.5374 C   0  0  0  0  0  4           0  0  0
   -1.8164    3.4454    7.3426 C   0  0  0  0  0  4           0  0  0
   -0.1247   -3.1095    7.2065 C   0  0  0  0  0  4           0  0  0
   -2.3788   -2.8628    8.0120 C   0  0  0  0  0  4           0  0  0
   -0.5104    3.6008    7.7975 C   0  0  0  0  0  4           0  0  0
   -1.1780   -3.5661    7.9922 C   0  0  0  0  0  4           0  0  0
   -1.6076    0.0337    5.5903 C   0  0  1  0  0  4           0  0  0
    3.6860    0.0000   -1.3967 C   0  0  1  0  0  4           0  0  0
   -0.3107    1.1957    2.0641 C   0  0  0  0  0  4           0  0  0
   -0.3889   -1.2199    2.0616 C   0  0  0  0  0  4           0  0  0
    0.0000    0.0000   -0.0000 C   0  0  0  0  0  4           0  0  0
    6.0527   -4.6309    1.3075 C   0  0  2  0  0  4           0  0  0
   -0.8416   -0.0012    4.2440 C   0  0  2  0  0  4           0  0  0
    2.1490    0.0000   -1.3967 C   0  0  0  0  0  4           0  0  0
   -1.0658    1.2662    3.3942 C   0  0  0  0  0  4           0  0  0
   -1.1537   -1.2427    3.3878 C   0  0  0  0  0  4           0  0  0
    1.5246   -0.0000   -0.0000 C   0  0  0  0  0  4           0  0  0
    5.0745   -5.8178    1.2092 C   0  0  0  0  0  4           0  0  0
    6.3144   -4.3266    2.7992 C   0  0  0  0  0  4           0  0  0
    7.4004   -5.0439    0.6755 C   0  0  0  0  0  4           0  0  0
  1 22  1  0     0  0
  2 23  1  0     0  0
  3 24  1  0     0  0
  3 25  1  0     0  0
  3 26  1  0     0  0
  4  8  2  0     0  0
  4  9  1  0     0  0
  4 22  1  0     0  0
  5 10  2  0     0  0
  5 11  1  0     0  0
  5 22  1  0     0  0
  6 12  2  0     0  0
  6 13  1  0     0  0
  6 23  1  0     0  0
  7 14  2  0     0  0
  7 15  1  0     0  0
  7 27  1  0     0  0
  8 16  1  0     0  0
  9 17  2  0     0  0
 10 18  1  0     0  0
 11 19  2  0     0  0
 12 14  1  0     0  0
 13 15  2  0     0  0
 16 20  2  0     0  0
 17 20  1  0     0  0
 18 21  2  0     0  0
 19 21  1  0     0  0
 22 28  1  0     0  0
 23 29  1  0     0  0
 24 30  1  0     0  0
 25 31  1  0     0  0
 26 32  1  0     0  0
 27 33  1  0     0  0
 27 34  1  0     0  0
 27 35  1  0     0  0
 28 30  1  0     0  0
 28 31  1  0     0  0
 29 32  1  0     0  0
M  END
> <standard_type>
pIC50

> <# Confs.>
25

> <canonical_smiles>
CC(C)(C1=CC=C(C(CCCN2CCC(C(C3=CC=CC=C3)(O)C4=CC=CC=C4)CC2)O)C=C1)C

> <standard_relation>
=

> <Publication_ID>
nan

> <predicted_activity_value>
nan

> <actual_activity_value>
1.2518119729937995

> <Compound>
Terfenadine

> <standard_units>
uM

> hash
14314180081394431565

$$$$
51
XXILIB    08252103503D 0   0.00000     0.00000

 35 38  0     1  0            999 V2000
   -2.6137    0.1068    5.4395 O   0  0  0  0  0  2           0  0  0
    2.1908    2.4150   -1.6055 O   0  0  0  0  0  2           0  0  0
   -0.6848    0.0000    1.2948 N   0  0  2  0  0  3           0  0  0
   -2.7250   -2.2629    5.5576 C   0  0  0  0  0  4           0  0  0
   -4.6788   -0.8781    4.7615 C   0  0  0  0  0  4           0  0  0
    2.3925    1.2123   -3.6251 C   0  0  0  0  0  4           0  0  0
    3.5465    1.2042   -6.2231 C   0  0  0  0  0  4           0  0  0
   -3.1147   -3.5486    5.1364 C   0  0  0  0  0  4           0  0  0
   -1.9703   -2.1633    6.7384 C   0  0  0  0  0  4           0  0  0
   -5.4396   -1.4262    3.7112 C   0  0  0  0  0  4           0  0  0
   -5.3604   -0.1479    5.7496 C   0  0  0  0  0  4           0  0  0
    1.7467    0.5846   -4.6956 C   0  0  0  0  0  4           0  0  0
    3.6237    1.8338   -3.8628 C   0  0  0  0  0  4           0  0  0
    2.3165    0.5770   -5.9741 C   0  0  0  0  0  4           0  0  0
    4.1929    1.8254   -5.1402 C   0  0  0  0  0  4           0  0  0
   -2.7478   -4.6886    5.8554 C   0  0  0  0  0  4           0  0  0
   -1.6016   -3.3051    7.4562 C   0  0  0  0  0  4           0  0  0
   -6.8265   -1.2676    3.6620 C   0  0  0  0  0  4           0  0  0
   -6.7490    0.0085    5.7006 C   0  0  0  0  0  4           0  0  0
   -1.9895   -4.5669    7.0152 C   0  0  0  0  0  4           0  0  0
   -7.4818   -0.5511    4.6582 C   0  0  0  0  0  4           0  0  0
   -3.1631   -1.0496    4.7676 C   0  0  1  0  0  4           0  0  0
    1.7646    1.2151   -2.2557 C   0  0  1  0  0  4           0  0  0
   -0.3107   -1.1957    2.0641 C   0  0  0  0  0  4           0  0  0
   -2.1450    0.0729    1.1328 C   0  0  0  0  0  4           0  0  0
    0.0000    0.0000    0.0000 C   0  0  0  0  0  4           0  0  0
    4.1905    1.2041   -7.5917 C   0  0  2  0  0  4           0  0  0
   -2.4870   -1.0735    3.3738 C   0  0  2  0  0  4           0  0  0
    2.1490   -0.0000   -1.3967 C   0  0  0  0  0  4           0  0  0
   -0.9514   -1.1915    3.4547 C   0  0  0  0  0  4           0  0  0
   -2.8529    0.1329    2.4891 C   0  0  0  0  0  4           0  0  0
    1.5246   -0.0000    0.0000 C   0  0  0  0  0  4           0  0  0
    4.4457   -0.2545   -8.0191 C   0  0  0  0  0  4           0  0  0
    5.5362    1.9625   -7.5894 C   0  0  0  0  0  4           0  0  0
    3.2807    1.8780   -8.6427 C   0  0  0  0  0  4           0  0  0
  1 22  1  0     0  0
  2 23  1  0     0  0
  3 24  1  0     0  0
  3 25  1  0     0  0
  3 26  1  0     0  0
  4  8  2  0     0  0
  4  9  1  0     0  0
  4 22  1  0     0  0
  5 10  2  0     0  0
  5 11  1  0     0  0
  5 22  1  0     0  0
  6 12  2  0     0  0
  6 13  1  0     0  0
  6 23  1  0     0  0
  7 14  2  0     0  0
  7 15  1  0     0  0
  7 27  1  0     0  0
  8 16  1  0     0  0
  9 17  2  0     0  0
 10 18  1  0     0  0
 11 19  2  0     0  0
 12 14  1  0     0  0
 13 15  2  0     0  0
 16 20  2  0     0  0
 17 20  1  0     0  0
 18 21  2  0     0  0
 19 21  1  0     0  0
 22 28  1  0     0  0
 23 29  1  0     0  0
 24 30  1  0     0  0
 25 31  1  0     0  0
 26 32  1  0     0  0
 27 33  1  0     0  0
 27 34  1  0     0  0
 27 35  1  0     0  0
 28 30  1  0     0  0
 28 31  1  0     0  0
 29 32  1  0     0  0
M  END
> <standard_type>
pIC50

> <# Confs.>
25

> <canonical_smiles>
CC(C)(C1=CC=C(C(CCCN2CCC(C(C3=CC=CC=C3)(O)C4=CC=CC=C4)CC2)O)C=C1)C

> <standard_relation>
=

> <Publication_ID>
nan

> <predicted_activity_value>
nan

> <actual_activity_value>
1.2518119729937995

> <Compound>
Terfenadine

> <standard_units>
uM

> hash
14314180081394431565

$$$$
51
XXILIB    08252103503D 0   0.00000     0.00000

 35 38  0     1  0            999 V2000
   -2.3012   -4.0341   -0.1983 O   0  0  0  0  0  2           0  0  0
    2.3977   -1.1174   -3.5337 O   0  0  0  0  0  2           0  0  0
   -0.6848   -0.0000    1.2948 N   0  0  2  0  0  3           0  0  0
   -4.3398   -3.7972    0.9972 C   0  0  0  0  0  4           0  0  0
   -2.3885   -5.0907    1.9395 C   0  0  0  0  0  4           0  0  0
    2.1815   -2.5347   -1.6601 C   0  0  0  0  0  4           0  0  0
    2.9404   -5.0389   -0.5491 C   0  0  0  0  0  4           0  0  0
   -5.1396   -3.6389    2.1451 C   0  0  0  0  0  4           0  0  0
   -4.9919   -3.9227   -0.2409 C   0  0  0  0  0  4           0  0  0
   -2.1791   -4.9729    3.3268 C   0  0  0  0  0  4           0  0  0
   -2.1286   -6.3361    1.3432 C   0  0  0  0  0  4           0  0  0
    1.2196   -3.4967   -1.3343 C   0  0  0  0  0  4           0  0  0
    3.5280   -2.8330   -1.4221 C   0  0  0  0  0  4           0  0  0
    1.5926   -4.7284   -0.7836 C   0  0  0  0  0  4           0  0  0
    3.9002   -4.0634   -0.8713 C   0  0  0  0  0  4           0  0  0
   -6.5327   -3.5882    2.0559 C   0  0  0  0  0  4           0  0  0
   -6.3863   -3.8696   -0.3294 C   0  0  0  0  0  4           0  0  0
   -1.7470   -6.0607    4.0891 C   0  0  0  0  0  4           0  0  0
   -1.6982   -7.4249    2.1075 C   0  0  0  0  0  4           0  0  0
   -7.1564   -3.7021    0.8177 C   0  0  0  0  0  4           0  0  0
   -1.5079   -7.2879    3.4793 C   0  0  0  0  0  4           0  0  0
   -2.8355   -3.8738    1.1355 C   0  0  1  0  0  4           0  0  0
    1.7646   -1.2151   -2.2557 C   0  0  1  0  0  4           0  0  0
   -2.1495   -0.0000    1.1887 C   0  0  0  0  0  4           0  0  0
   -0.2348   -1.1015    2.1553 C   0  0  0  0  0  4           0  0  0
    0.0000    0.0000    0.0000 C   0  0  0  0  0  4           0  0  0
    3.3722   -6.3574    0.0533 C   0  0  2  0  0  4           0  0  0
   -2.2950   -2.5069    1.6329 C   0  0  2  0  0  4           0  0  0
    2.1490    0.0000   -1.3967 C   0  0  0  0  0  4           0  0  0
   -2.7463   -1.3351    0.7322 C   0  0  0  0  0  4           0  0  0
   -0.7532   -2.4797    1.7310 C   0  0  0  0  0  4           0  0  0
    1.5246    0.0000   -0.0000 C   0  0  0  0  0  4           0  0  0
    2.7301   -6.4993    1.4471 C   0  0  0  0  0  4           0  0  0
    4.9074   -6.4406    0.2041 C   0  0  0  0  0  4           0  0  0
    2.9275   -7.5497   -0.8226 C   0  0  0  0  0  4           0  0  0
  1 22  1  0     0  0
  2 23  1  0     0  0
  3 24  1  0     0  0
  3 25  1  0     0  0
  3 26  1  0     0  0
  4  8  2  0     0  0
  4  9  1  0     0  0
  4 22  1  0     0  0
  5 10  2  0     0  0
  5 11  1  0     0  0
  5 22  1  0     0  0
  6 12  2  0     0  0
  6 13  1  0     0  0
  6 23  1  0     0  0
  7 14  2  0     0  0
  7 15  1  0     0  0
  7 27  1  0     0  0
  8 16  1  0     0  0
  9 17  2  0     0  0
 10 18  1  0     0  0
 11 19  2  0     0  0
 12 14  1  0     0  0
 13 15  2  0     0  0
 16 20  2  0     0  0
 17 20  1  0     0  0
 18 21  2  0     0  0
 19 21  1  0     0  0
 22 28  1  0     0  0
 23 29  1  0     0  0
 24 30  1  0     0  0
 25 31  1  0     0  0
 26 32  1  0     0  0
 27 33  1  0     0  0
 27 34  1  0     0  0
 27 35  1  0     0  0
 28 30  1  0     0  0
 28 31  1  0     0  0
 29 32  1  0     0  0
M  END
> <standard_type>
pIC50

> <# Confs.>
25

> <canonical_smiles>
CC(C)(C1=CC=C(C(CCCN2CCC(C(C3=CC=CC=C3)(O)C4=CC=CC=C4)CC2)O)C=C1)C

> <standard_relation>
=

> <Publication_ID>
nan

> <predicted_activity_value>
nan

> <actual_activity_value>
1.2518119729937995

> <Compound>
Terfenadine

> <standard_units>
uM

> hash
14314180081394431565

$$$$
51
XXILIB    08252103503D 0   0.00000     0.00000

 35 38  0     1  0            999 V2000
   -2.8405   -0.2548    5.3196 O   0  0  0  0  0  2           0  0  0
    2.1908    2.4150   -1.6055 O   0  0  0  0  0  2           0  0  0
   -0.6848    0.0000    1.2948 N   0  0  2  0  0  3           0  0  0
   -4.7086    0.9674    4.5085 C   0  0  0  0  0  4           0  0  0
   -2.8186    2.0930    5.7453 C   0  0  0  0  0  4           0  0  0
    2.3925    1.2123   -3.6251 C   0  0  0  0  0  4           0  0  0
    3.5465    1.2042   -6.2231 C   0  0  0  0  0  4           0  0  0
   -5.3647    2.0791    3.9464 C   0  0  0  0  0  4           0  0  0
   -5.4943   -0.1384    4.8746 C   0  0  0  0  0  4           0  0  0
   -2.4562    3.3747    5.2891 C   0  0  0  0  0  4           0  0  0
   -2.7549    1.8496    7.1276 C   0  0  0  0  0  4           0  0  0
    1.7467    0.5846   -4.6956 C   0  0  0  0  0  4           0  0  0
    3.6237    1.8338   -3.8628 C   0  0  0  0  0  4           0  0  0
    2.3165    0.5770   -5.9741 C   0  0  0  0  0  4           0  0  0
    4.1929    1.8254   -5.1402 C   0  0  0  0  0  4           0  0  0
   -6.7463    2.0770    3.7406 C   0  0  0  0  0  4           0  0  0
   -6.8769   -0.1403    4.6662 C   0  0  0  0  0  4           0  0  0
   -2.0656    4.3771    6.1800 C   0  0  0  0  0  4           0  0  0
   -2.3658    2.8543    8.0188 C   0  0  0  0  0  4           0  0  0
   -7.5027    0.9660    4.0994 C   0  0  0  0  0  4           0  0  0
   -2.0218    4.1172    7.5459 C   0  0  0  0  0  4           0  0  0
   -3.2146    1.0159    4.7404 C   0  0  1  0  0  4           0  0  0
    1.7646    1.2151   -2.2557 C   0  0  1  0  0  4           0  0  0
   -2.1415   -0.0000    1.0958 C   0  0  0  0  0  4           0  0  0
   -0.2772    1.1469    2.1207 C   0  0  0  0  0  4           0  0  0
    0.0000    0.0000    0.0000 C   0  0  0  0  0  4           0  0  0
    4.1905    1.2041   -7.5917 C   0  0  2  0  0  4           0  0  0
   -2.4852    1.0747    3.3747 C   0  0  2  0  0  4           0  0  0
    2.1490   -0.0000   -1.3967 C   0  0  0  0  0  4           0  0  0
   -2.8901   -0.0747    2.4293 C   0  0  0  0  0  4           0  0  0
   -0.9503    1.1098    3.4954 C   0  0  0  0  0  4           0  0  0
    1.5246   -0.0000    0.0000 C   0  0  0  0  0  4           0  0  0
    4.4457   -0.2545   -8.0191 C   0  0  0  0  0  4           0  0  0
    5.5362    1.9625   -7.5894 C   0  0  0  0  0  4           0  0  0
    3.2807    1.8780   -8.6427 C   0  0  0  0  0  4           0  0  0
  1 22  1  0     0  0
  2 23  1  0     0  0
  3 24  1  0     0  0
  3 25  1  0     0  0
  3 26  1  0     0  0
  4  8  2  0     0  0
  4  9  1  0     0  0
  4 22  1  0     0  0
  5 10  2  0     0  0
  5 11  1  0     0  0
  5 22  1  0     0  0
  6 12  2  0     0  0
  6 13  1  0     0  0
  6 23  1  0     0  0
  7 14  2  0     0  0
  7 15  1  0     0  0
  7 27  1  0     0  0
  8 16  1  0     0  0
  9 17  2  0     0  0
 10 18  1  0     0  0
 11 19  2  0     0  0
 12 14  1  0     0  0
 13 15  2  0     0  0
 16 20  2  0     0  0
 17 20  1  0     0  0
 18 21  2  0     0  0
 19 21  1  0     0  0
 22 28  1  0     0  0
 23 29  1  0     0  0
 24 30  1  0     0  0
 25 31  1  0     0  0
 26 32  1  0     0  0
 27 33  1  0     0  0
 27 34  1  0     0  0
 27 35  1  0     0  0
 28 30  1  0     0  0
 28 31  1  0     0  0
 29 32  1  0     0  0
M  END
> <standard_type>
pIC50

> <# Confs.>
25

> <canonical_smiles>
CC(C)(C1=CC=C(C(CCCN2CCC(C(C3=CC=CC=C3)(O)C4=CC=CC=C4)CC2)O)C=C1)C

> <standard_relation>
=

> <Publication_ID>
nan

> <predicted_activity_value>
nan

> <actual_activity_value>
1.2518119729937995

> <Compound>
Terfenadine

> <standard_units>
uM

> hash
14314180081394431565

$$$$
51
XXILIB    08252103503D 0   0.00000     0.00000

 35 38  0     1  0            999 V2000
   -2.3012   -4.0341   -0.1983 O   0  0  0  0  0  2           0  0  0
    4.1646    2.3762    1.3719 O   0  0  0  0  0  2           0  0  0
   -0.6848   -0.0000    1.2948 N   0  0  2  0  0  3           0  0  0
   -4.3398   -3.7972    0.9972 C   0  0  0  0  0  4           0  0  0
   -2.3885   -5.0907    1.9395 C   0  0  0  0  0  4           0  0  0
    4.2921    0.0206    1.3974 C   0  0  0  0  0  4           0  0  0
    5.4612   -2.2227    2.6943 C   0  0  0  0  0  4           0  0  0
   -5.1396   -3.6389    2.1451 C   0  0  0  0  0  4           0  0  0
   -4.9919   -3.9227   -0.2409 C   0  0  0  0  0  4           0  0  0
   -2.1791   -4.9729    3.3268 C   0  0  0  0  0  4           0  0  0
   -2.1286   -6.3361    1.3432 C   0  0  0  0  0  4           0  0  0
    5.1112   -0.8689    0.6941 C   0  0  0  0  0  4           0  0  0
    4.0581   -0.2225    2.7557 C   0  0  0  0  0  4           0  0  0
    5.6839   -1.9758    1.3314 C   0  0  0  0  0  4           0  0  0
    4.6300   -1.3289    3.3919 C   0  0  0  0  0  4           0  0  0
   -6.5327   -3.5882    2.0559 C   0  0  0  0  0  4           0  0  0
   -6.3863   -3.8696   -0.3294 C   0  0  0  0  0  4           0  0  0
   -1.7470   -6.0607    4.0891 C   0  0  0  0  0  4           0  0  0
   -1.6982   -7.4249    2.1075 C   0  0  0  0  0  4           0  0  0
   -7.1564   -3.7021    0.8177 C   0  0  0  0  0  4           0  0  0
   -1.5079   -7.2879    3.4793 C   0  0  0  0  0  4           0  0  0
   -2.8355   -3.8738    1.1355 C   0  0  1  0  0  4           0  0  0
    3.6860    1.2095    0.6983 C   0  0  1  0  0  4           0  0  0
   -2.1495   -0.0000    1.1887 C   0  0  0  0  0  4           0  0  0
   -0.2348   -1.1015    2.1553 C   0  0  0  0  0  4           0  0  0
    0.0000    0.0000    0.0000 C   0  0  0  0  0  4           0  0  0
    6.0590   -3.4155    3.4070 C   0  0  2  0  0  4           0  0  0
   -2.2950   -2.5069    1.6329 C   0  0  2  0  0  4           0  0  0
    2.1490    1.2095    0.6983 C   0  0  0  0  0  4           0  0  0
   -2.7463   -1.3351    0.7322 C   0  0  0  0  0  4           0  0  0
   -0.7532   -2.4797    1.7310 C   0  0  0  0  0  4           0  0  0
    1.5246    0.0000    0.0000 C   0  0  0  0  0  4           0  0  0
    5.5528   -4.7032    2.7281 C   0  0  0  0  0  4           0  0  0
    5.6564   -3.4503    4.8980 C   0  0  0  0  0  4           0  0  0
    7.6023   -3.3942    3.3441 C   0  0  0  0  0  4           0  0  0
  1 22  1  0     0  0
  2 23  1  0     0  0
  3 24  1  0     0  0
  3 25  1  0     0  0
  3 26  1  0     0  0
  4  8  2  0     0  0
  4  9  1  0     0  0
  4 22  1  0     0  0
  5 10  2  0     0  0
  5 11  1  0     0  0
  5 22  1  0     0  0
  6 12  2  0     0  0
  6 13  1  0     0  0
  6 23  1  0     0  0
  7 14  2  0     0  0
  7 15  1  0     0  0
  7 27  1  0     0  0
  8 16  1  0     0  0
  9 17  2  0     0  0
 10 18  1  0     0  0
 11 19  2  0     0  0
 12 14  1  0     0  0
 13 15  2  0     0  0
 16 20  2  0     0  0
 17 20  1  0     0  0
 18 21  2  0     0  0
 19 21  1  0     0  0
 22 28  1  0     0  0
 23 29  1  0     0  0
 24 30  1  0     0  0
 25 31  1  0     0  0
 26 32  1  0     0  0
 27 33  1  0     0  0
 27 34  1  0     0  0
 27 35  1  0     0  0
 28 30  1  0     0  0
 28 31  1  0     0  0
 29 32  1  0     0  0
M  END
> <standard_type>
pIC50

> <# Confs.>
25

> <canonical_smiles>
CC(C)(C1=CC=C(C(CCCN2CCC(C(C3=CC=CC=C3)(O)C4=CC=CC=C4)CC2)O)C=C1)C

> <standard_relation>
=

> <Publication_ID>
nan

> <predicted_activity_value>
nan

> <actual_activity_value>
1.2518119729937995

> <Compound>
Terfenadine

> <standard_units>
uM

> hash
14314180081394431565

$$$$
55
XXILIB    08252103503D 0   0.00000     0.00000

 28 32  0     1  0            999 V2000
    3.6749   -0.3523    2.9735 Cl  0  0  0  0  0  1           0  0  0
   -5.4110   -3.5450    1.0364 S   0  0  0  0  0  2           0  0  0
    9.0957    1.7481   -1.6455 O   0  0  0  0  0  2           0  0  0
   -3.9401   -3.0238    0.5387 N   0  0  0  0  0  3           0  0  0
   -2.5974   -1.0739    0.5451 N   0  0  2  0  0  3           0  0  0
    7.7904    0.8691    0.1016 N   0  0  0  0  0  3           0  0  0
    0.0000    0.0000    0.0000 N   0  0  2  0  0  3           0  0  0
    4.4346    0.3692    1.5954 C   0  0  0  0  0  4           0  0  0
   -5.9085   -2.0715    1.7450 C   0  0  0  0  0  4           0  0  0
   -3.7517   -1.7390    0.8656 C   0  0  0  0  0  4           0  0  0
    6.4344    0.8407    0.4076 C   0  0  0  0  0  4           0  0  0
   -4.8813   -1.1321    1.5837 C   0  0  0  0  0  4           0  0  0
    3.6757    1.0377    0.5991 C   0  0  0  0  0  4           0  0  0
    5.7177    1.5028   -0.5813 C   0  0  0  0  0  4           0  0  0
    5.8284    0.2655    1.5040 C   0  0  0  0  0  4           0  0  0
   -7.1222   -1.7812    2.3927 C   0  0  0  0  0  4           0  0  0
   -5.1222    0.1621    2.1196 C   0  0  0  0  0  4           0  0  0
    4.3425    1.6133   -0.5006 C   0  0  0  0  0  4           0  0  0
   -7.3162   -0.4983    2.8995 C   0  0  0  0  0  4           0  0  0
   -6.3280    0.4641    2.7656 C   0  0  0  0  0  4           0  0  0
    8.0217    1.5484   -1.0998 C   0  0  0  0  0  4           0  0  0
   -2.0732    0.0187    1.3652 C   0  0  0  0  0  4           0  0  0
   -2.0303   -1.1742   -0.8004 C   0  0  0  0  0  4           0  0  0
   -0.5420    0.0000    1.3684 C   0  0  0  0  0  4           0  0  0
   -0.5024   -1.1722   -0.7336 C   0  0  0  0  0  4           0  0  0
    1.4643   -0.0000   -0.0000 C   0  0  0  0  0  4           0  0  0
    6.6585    2.0093   -1.6278 C   0  0  0  0  0  4           0  0  0
    2.1816    1.1755    0.6787 C   0  0  0  0  0  4           0  0  0
  1  8  1  0     0  0
  2  4  1  0     0  0
  2  9  1  0     0  0
  3 21  2  0     0  0
  4 10  2  0     0  0
  5 10  1  0     0  0
  5 22  1  0     0  0
  5 23  1  0     0  0
  6 11  1  0     0  0
  6 21  1  0     0  0
  7 24  1  0     0  0
  7 25  1  0     0  0
  7 26  1  0     0  0
  8 13  2  0     0  0
  8 15  1  0     0  0
  9 12  1  0     0  0
  9 16  2  0     0  0
 10 12  1  0     0  0
 11 14  1  0     0  0
 11 15  2  0     0  0
 12 17  2  0     0  0
 13 18  1  0     0  0
 13 28  1  0     0  0
 14 18  2  0     0  0
 14 27  1  0     0  0
 16 19  1  0     0  0
 17 20  1  0     0  0
 19 20  2  0     0  0
 21 27  1  0     0  0
 22 24  1  0     0  0
 23 25  1  0     0  0
 26 28  1  0     0  0
M  END
> <standard_type>
pIC50

> <# Confs.>
25

> <canonical_smiles>
O=C1Cc2cc(CCN3CCN(c(ns4)c5c4cccc5)CC3)c(Cl)cc2N1

> <standard_relation>
=

> <Publication_ID>
nan

> <predicted_activity_value>
nan

> <actual_activity_value>
0.7721132953863264

> <Compound>
Ziprasidone

> <standard_units>
uM

> hash
13771276454143521524

$$$$
55
XXILIB    08252103503D 0   0.00000     0.00000

 28 32  0     1  0            999 V2000
    3.6749   -0.3523    2.9735 Cl  0  0  0  0  0  1           0  0  0
   -5.9920   -2.1797    1.7771 S   0  0  0  0  0  2           0  0  0
    9.0957    1.7481   -1.6455 O   0  0  0  0  0  2           0  0  0
   -4.7527   -1.1394    1.5226 N   0  0  0  0  0  3           0  0  0
   -2.5974   -1.0739    0.5451 N   0  0  2  0  0  3           0  0  0
    7.7904    0.8691    0.1016 N   0  0  0  0  0  3           0  0  0
    0.0000    0.0000    0.0000 N   0  0  2  0  0  3           0  0  0
    4.4346    0.3692    1.5954 C   0  0  0  0  0  4           0  0  0
   -5.2748   -3.5266    1.0075 C   0  0  0  0  0  4           0  0  0
   -3.7517   -1.7390    0.8656 C   0  0  0  0  0  4           0  0  0
    6.4344    0.8407    0.4076 C   0  0  0  0  0  4           0  0  0
   -4.0121   -3.1467    0.5332 C   0  0  0  0  0  4           0  0  0
    3.6757    1.0377    0.5991 C   0  0  0  0  0  4           0  0  0
    5.7177    1.5028   -0.5813 C   0  0  0  0  0  4           0  0  0
    5.8284    0.2655    1.5040 C   0  0  0  0  0  4           0  0  0
   -5.8016   -4.8198    0.8429 C   0  0  0  0  0  4           0  0  0
   -3.2659   -4.1498   -0.1430 C   0  0  0  0  0  4           0  0  0
    4.3425    1.6133   -0.5006 C   0  0  0  0  0  4           0  0  0
   -5.0335   -5.7719    0.1768 C   0  0  0  0  0  4           0  0  0
   -3.7792   -5.4422   -0.3118 C   0  0  0  0  0  4           0  0  0
    8.0217    1.5484   -1.0998 C   0  0  0  0  0  4           0  0  0
   -2.0732    0.0187    1.3652 C   0  0  0  0  0  4           0  0  0
   -2.0303   -1.1742   -0.8004 C   0  0  0  0  0  4           0  0  0
   -0.5420    0.0000    1.3684 C   0  0  0  0  0  4           0  0  0
   -0.5024   -1.1722   -0.7336 C   0  0  0  0  0  4           0  0  0
    1.4643   -0.0000   -0.0000 C   0  0  0  0  0  4           0  0  0
    6.6585    2.0093   -1.6278 C   0  0  0  0  0  4           0  0  0
    2.1816    1.1755    0.6787 C   0  0  0  0  0  4           0  0  0
  1  8  1  0     0  0
  2  4  1  0     0  0
  2  9  1  0     0  0
  3 21  2  0     0  0
  4 10  2  0     0  0
  5 10  1  0     0  0
  5 22  1  0     0  0
  5 23  1  0     0  0
  6 11  1  0     0  0
  6 21  1  0     0  0
  7 24  1  0     0  0
  7 25  1  0     0  0
  7 26  1  0     0  0
  8 13  2  0     0  0
  8 15  1  0     0  0
  9 12  1  0     0  0
  9 16  2  0     0  0
 10 12  1  0     0  0
 11 14  1  0     0  0
 11 15  2  0     0  0
 12 17  2  0     0  0
 13 18  1  0     0  0
 13 28  1  0     0  0
 14 18  2  0     0  0
 14 27  1  0     0  0
 16 19  1  0     0  0
 17 20  1  0     0  0
 19 20  2  0     0  0
 21 27  1  0     0  0
 22 24  1  0     0  0
 23 25  1  0     0  0
 26 28  1  0     0  0
M  END
> <standard_type>
pIC50

> <# Confs.>
25

> <canonical_smiles>
O=C1Cc2cc(CCN3CCN(c(ns4)c5c4cccc5)CC3)c(Cl)cc2N1

> <standard_relation>
=

> <Publication_ID>
nan

> <predicted_activity_value>
nan

> <actual_activity_value>
0.7721132953863264

> <Compound>
Ziprasidone

> <standard_units>
uM

> hash
13771276454143521524

$$$$
55
XXILIB    08252103503D 0   0.00000     0.00000

 28 32  0     1  0            999 V2000
    3.6784    2.4276   -1.7753 Cl  0  0  0  0  0  1           0  0  0
   -5.4110   -3.5450    1.0364 S   0  0  0  0  0  2           0  0  0
    9.0810   -0.6707    2.2676 O   0  0  0  0  0  2           0  0  0
   -3.9401   -3.0238    0.5387 N   0  0  0  0  0  3           0  0  0
   -2.5974   -1.0739    0.5451 N   0  0  2  0  0  3           0  0  0
    7.7813    0.4485    0.6591 N   0  0  0  0  0  3           0  0  0
    0.0000    0.0000    0.0000 N   0  0  2  0  0  3           0  0  0
    4.4346    1.5663   -0.4780 C   0  0  0  0  0  4           0  0  0
   -5.9085   -2.0715    1.7450 C   0  0  0  0  0  4           0  0  0
   -3.7517   -1.7390    0.8656 C   0  0  0  0  0  4           0  0  0
    6.4287    0.7266    0.4973 C   0  0  0  0  0  4           0  0  0
   -4.8813   -1.1321    1.5837 C   0  0  0  0  0  4           0  0  0
    3.6757    1.0377    0.5991 C   0  0  0  0  0  4           0  0  0
    5.7114    0.1967    1.5626 C   0  0  0  0  0  4           0  0  0
    5.8257    1.4133   -0.5347 C   0  0  0  0  0  4           0  0  0
   -7.1222   -1.7812    2.3927 C   0  0  0  0  0  4           0  0  0
   -5.1222    0.1621    2.1196 C   0  0  0  0  0  4           0  0  0
    4.3384    0.3396    1.6281 C   0  0  0  0  0  4           0  0  0
   -7.3162   -0.4983    2.8995 C   0  0  0  0  0  4           0  0  0
   -6.3280    0.4641    2.7656 C   0  0  0  0  0  4           0  0  0
    8.0100   -0.2732    1.8361 C   0  0  0  0  0  4           0  0  0
   -2.0732    0.0187    1.3652 C   0  0  0  0  0  4           0  0  0
   -2.0303   -1.1742   -0.8004 C   0  0  0  0  0  4           0  0  0
   -0.5420    0.0000    1.3684 C   0  0  0  0  0  4           0  0  0
   -0.5024   -1.1722   -0.7336 C   0  0  0  0  0  4           0  0  0
    1.4643    0.0000   -0.0000 C   0  0  0  0  0  4           0  0  0
    6.6490   -0.4829    2.5090 C   0  0  0  0  0  4           0  0  0
    2.1816    1.1755    0.6787 C   0  0  0  0  0  4           0  0  0
  1  8  1  0     0  0
  2  4  1  0     0  0
  2  9  1  0     0  0
  3 21  2  0     0  0
  4 10  2  0     0  0
  5 10  1  0     0  0
  5 22  1  0     0  0
  5 23  1  0     0  0
  6 11  1  0     0  0
  6 21  1  0     0  0
  7 24  1  0     0  0
  7 25  1  0     0  0
  7 26  1  0     0  0
  8 13  2  0     0  0
  8 15  1  0     0  0
  9 12  1  0     0  0
  9 16  2  0     0  0
 10 12  1  0     0  0
 11 14  1  0     0  0
 11 15  2  0     0  0
 12 17  2  0     0  0
 13 18  1  0     0  0
 13 28  1  0     0  0
 14 18  2  0     0  0
 14 27  1  0     0  0
 16 19  1  0     0  0
 17 20  1  0     0  0
 19 20  2  0     0  0
 21 27  1  0     0  0
 22 24  1  0     0  0
 23 25  1  0     0  0
 26 28  1  0     0  0
M  END
> <standard_type>
pIC50

> <# Confs.>
25

> <canonical_smiles>
O=C1Cc2cc(CCN3CCN(c(ns4)c5c4cccc5)CC3)c(Cl)cc2N1

> <standard_relation>
=

> <Publication_ID>
nan

> <predicted_activity_value>
nan

> <actual_activity_value>
0.7721132953863264

> <Compound>
Ziprasidone

> <standard_units>
uM

> hash
13771276454143521524

$$$$
55
XXILIB    08252103503D 0   0.00000     0.00000

 28 32  0     1  0            999 V2000
    3.6749   -0.3523    2.9735 Cl  0  0  0  0  0  1           0  0  0
   -5.3621   -3.1064    2.1229 S   0  0  0  0  0  2           0  0  0
    9.0957    1.7481   -1.6455 O   0  0  0  0  0  2           0  0  0
   -3.8873   -2.4010    2.0216 N   0  0  0  0  0  3           0  0  0
   -2.5974   -1.0739    0.5451 N   0  0  2  0  0  3           0  0  0
    7.7904    0.8691    0.1016 N   0  0  0  0  0  3           0  0  0
    0.0000    0.0000    0.0000 N   0  0  2  0  0  3           0  0  0
    4.4346    0.3692    1.5954 C   0  0  0  0  0  4           0  0  0
   -5.9408   -2.5625    0.6095 C   0  0  0  0  0  4           0  0  0
   -3.7517   -1.7390    0.8656 C   0  0  0  0  0  4           0  0  0
    6.4344    0.8407    0.4076 C   0  0  0  0  0  4           0  0  0
   -4.9372   -1.7985   -0.0011 C   0  0  0  0  0  4           0  0  0
    3.6757    1.0377    0.5991 C   0  0  0  0  0  4           0  0  0
    5.7177    1.5028   -0.5813 C   0  0  0  0  0  4           0  0  0
    5.8284    0.2655    1.5040 C   0  0  0  0  0  4           0  0  0
   -7.1933   -2.8021    0.0174 C   0  0  0  0  0  4           0  0  0
   -5.2473   -1.2578   -1.2784 C   0  0  0  0  0  4           0  0  0
    4.3425    1.6133   -0.5006 C   0  0  0  0  0  4           0  0  0
   -7.4522   -2.2551   -1.2372 C   0  0  0  0  0  4           0  0  0
   -6.4911   -1.4908   -1.8795 C   0  0  0  0  0  4           0  0  0
    8.0217    1.5484   -1.0998 C   0  0  0  0  0  4           0  0  0
   -2.0732    0.0187    1.3652 C   0  0  0  0  0  4           0  0  0
   -2.0303   -1.1742   -0.8004 C   0  0  0  0  0  4           0  0  0
   -0.5420    0.0000    1.3684 C   0  0  0  0  0  4           0  0  0
   -0.5024   -1.1722   -0.7336 C   0  0  0  0  0  4           0  0  0
    1.4643   -0.0000   -0.0000 C   0  0  0  0  0  4           0  0  0
    6.6585    2.0093   -1.6278 C   0  0  0  0  0  4           0  0  0
    2.1816    1.1755    0.6787 C   0  0  0  0  0  4           0  0  0
  1  8  1  0     0  0
  2  4  1  0     0  0
  2  9  1  0     0  0
  3 21  2  0     0  0
  4 10  2  0     0  0
  5 10  1  0     0  0
  5 22  1  0     0  0
  5 23  1  0     0  0
  6 11  1  0     0  0
  6 21  1  0     0  0
  7 24  1  0     0  0
  7 25  1  0     0  0
  7 26  1  0     0  0
  8 13  2  0     0  0
  8 15  1  0     0  0
  9 12  1  0     0  0
  9 16  2  0     0  0
 10 12  1  0     0  0
 11 14  1  0     0  0
 11 15  2  0     0  0
 12 17  2  0     0  0
 13 18  1  0     0  0
 13 28  1  0     0  0
 14 18  2  0     0  0
 14 27  1  0     0  0
 16 19  1  0     0  0
 17 20  1  0     0  0
 19 20  2  0     0  0
 21 27  1  0     0  0
 22 24  1  0     0  0
 23 25  1  0     0  0
 26 28  1  0     0  0
M  END
> <standard_type>
pIC50

> <# Confs.>
25

> <canonical_smiles>
O=C1Cc2cc(CCN3CCN(c(ns4)c5c4cccc5)CC3)c(Cl)cc2N1

> <standard_relation>
=

> <Publication_ID>
nan

> <predicted_activity_value>
nan

> <actual_activity_value>
0.7721132953863264

> <Compound>
Ziprasidone

> <standard_units>
uM

> hash
13771276454143521524

$$$$
55
XXILIB    08252103503D 0   0.00000     0.00000

 28 32  0     1  0            999 V2000
    3.6784   -2.7512   -1.2147 Cl  0  0  0  0  0  1           0  0  0
   -5.4110   -3.5450    1.0364 S   0  0  0  0  0  2           0  0  0
    9.0810    2.2991   -0.5530 O   0  0  0  0  0  2           0  0  0
   -3.9401   -3.0238    0.5387 N   0  0  0  0  0  3           0  0  0
   -2.5974   -1.0739    0.5451 N   0  0  2  0  0  3           0  0  0
    7.7813    0.3466   -0.7180 N   0  0  0  0  0  3           0  0  0
    0.0000    0.0000    0.0000 N   0  0  2  0  0  3           0  0  0
    4.4346   -1.1971   -1.1175 C   0  0  0  0  0  4           0  0  0
   -5.9085   -2.0715    1.7450 C   0  0  0  0  0  4           0  0  0
   -3.7517   -1.7390    0.8656 C   0  0  0  0  0  4           0  0  0
    6.4287    0.0673   -0.8779 C   0  0  0  0  0  4           0  0  0
   -4.8813   -1.1321    1.5837 C   0  0  0  0  0  4           0  0  0
    3.6757    0.0000   -1.1983 C   0  0  0  0  0  4           0  0  0
    5.7114    1.2548   -0.9517 C   0  0  0  0  0  4           0  0  0
    5.8257   -1.1697   -0.9566 C   0  0  0  0  0  4           0  0  0
   -7.1222   -1.7812    2.3927 C   0  0  0  0  0  4           0  0  0
   -5.1222    0.1621    2.1196 C   0  0  0  0  0  4           0  0  0
    4.3384    1.2402   -1.1082 C   0  0  0  0  0  4           0  0  0
   -7.3162   -0.4983    2.8995 C   0  0  0  0  0  4           0  0  0
   -6.3280    0.4641    2.7656 C   0  0  0  0  0  4           0  0  0
    8.0100    1.7267   -0.6815 C   0  0  0  0  0  4           0  0  0
   -2.0732    0.0187    1.3652 C   0  0  0  0  0  4           0  0  0
   -2.0303   -1.1742   -0.8004 C   0  0  0  0  0  4           0  0  0
   -0.5420    0.0000    1.3684 C   0  0  0  0  0  4           0  0  0
   -0.5024   -1.1722   -0.7336 C   0  0  0  0  0  4           0  0  0
    1.4643   -0.0000   -0.0000 C   0  0  0  0  0  4           0  0  0
    6.6490    2.4143   -0.8363 C   0  0  0  0  0  4           0  0  0
    2.1816    0.0000   -1.3573 C   0  0  0  0  0  4           0  0  0
  1  8  1  0     0  0
  2  4  1  0     0  0
  2  9  1  0     0  0
  3 21  2  0     0  0
  4 10  2  0     0  0
  5 10  1  0     0  0
  5 22  1  0     0  0
  5 23  1  0     0  0
  6 11  1  0     0  0
  6 21  1  0     0  0
  7 24  1  0     0  0
  7 25  1  0     0  0
  7 26  1  0     0  0
  8 13  2  0     0  0
  8 15  1  0     0  0
  9 12  1  0     0  0
  9 16  2  0     0  0
 10 12  1  0     0  0
 11 14  1  0     0  0
 11 15  2  0     0  0
 12 17  2  0     0  0
 13 18  1  0     0  0
 13 28  1  0     0  0
 14 18  2  0     0  0
 14 27  1  0     0  0
 16 19  1  0     0  0
 17 20  1  0     0  0
 19 20  2  0     0  0
 21 27  1  0     0  0
 22 24  1  0     0  0
 23 25  1  0     0  0
 26 28  1  0     0  0
M  END
> <standard_type>
pIC50

> <# Confs.>
25

> <canonical_smiles>
O=C1Cc2cc(CCN3CCN(c(ns4)c5c4cccc5)CC3)c(Cl)cc2N1

> <standard_relation>
=

> <Publication_ID>
nan

> <predicted_activity_value>
nan

> <actual_activity_value>
0.7721132953863264

> <Compound>
Ziprasidone

> <standard_units>
uM

> hash
13771276454143521524

$$$$
55
XXILIB    08252103503D 0   0.00000     0.00000

 28 32  0     1  0            999 V2000
    3.6784    2.4276   -1.7753 Cl  0  0  0  0  0  1           0  0  0
   -5.9920   -2.1797    1.7771 S   0  0  0  0  0  2           0  0  0
    9.0810   -0.6707    2.2676 O   0  0  0  0  0  2           0  0  0
   -4.7527   -1.1394    1.5226 N   0  0  0  0  0  3           0  0  0
   -2.5974   -1.0739    0.5451 N   0  0  2  0  0  3           0  0  0
    7.7813    0.4485    0.6591 N   0  0  0  0  0  3           0  0  0
    0.0000    0.0000    0.0000 N   0  0  2  0  0  3           0  0  0
    4.4346    1.5663   -0.4780 C   0  0  0  0  0  4           0  0  0
   -5.2748   -3.5266    1.0075 C   0  0  0  0  0  4           0  0  0
   -3.7517   -1.7390    0.8656 C   0  0  0  0  0  4           0  0  0
    6.4287    0.7266    0.4973 C   0  0  0  0  0  4           0  0  0
   -4.0121   -3.1467    0.5332 C   0  0  0  0  0  4           0  0  0
    3.6757    1.0377    0.5991 C   0  0  0  0  0  4           0  0  0
    5.7114    0.1967    1.5626 C   0  0  0  0  0  4           0  0  0
    5.8257    1.4133   -0.5347 C   0  0  0  0  0  4           0  0  0
   -5.8016   -4.8198    0.8429 C   0  0  0  0  0  4           0  0  0
   -3.2659   -4.1498   -0.1430 C   0  0  0  0  0  4           0  0  0
    4.3384    0.3396    1.6281 C   0  0  0  0  0  4           0  0  0
   -5.0335   -5.7719    0.1768 C   0  0  0  0  0  4           0  0  0
   -3.7792   -5.4422   -0.3118 C   0  0  0  0  0  4           0  0  0
    8.0100   -0.2732    1.8361 C   0  0  0  0  0  4           0  0  0
   -2.0732    0.0187    1.3652 C   0  0  0  0  0  4           0  0  0
   -2.0303   -1.1742   -0.8004 C   0  0  0  0  0  4           0  0  0
   -0.5420    0.0000    1.3684 C   0  0  0  0  0  4           0  0  0
   -0.5024   -1.1722   -0.7336 C   0  0  0  0  0  4           0  0  0
    1.4643    0.0000   -0.0000 C   0  0  0  0  0  4           0  0  0
    6.6490   -0.4829    2.5090 C   0  0  0  0  0  4           0  0  0
    2.1816    1.1755    0.6787 C   0  0  0  0  0  4           0  0  0
  1  8  1  0     0  0
  2  4  1  0     0  0
  2  9  1  0     0  0
  3 21  2  0     0  0
  4 10  2  0     0  0
  5 10  1  0     0  0
  5 22  1  0     0  0
  5 23  1  0     0  0
  6 11  1  0     0  0
  6 21  1  0     0  0
  7 24  1  0     0  0
  7 25  1  0     0  0
  7 26  1  0     0  0
  8 13  2  0     0  0
  8 15  1  0     0  0
  9 12  1  0     0  0
  9 16  2  0     0  0
 10 12  1  0     0  0
 11 14  1  0     0  0
 11 15  2  0     0  0
 12 17  2  0     0  0
 13 18  1  0     0  0
 13 28  1  0     0  0
 14 18  2  0     0  0
 14 27  1  0     0  0
 16 19  1  0     0  0
 17 20  1  0     0  0
 19 20  2  0     0  0
 21 27  1  0     0  0
 22 24  1  0     0  0
 23 25  1  0     0  0
 26 28  1  0     0  0
M  END
> <standard_type>
pIC50

> <# Confs.>
25

> <canonical_smiles>
O=C1Cc2cc(CCN3CCN(c(ns4)c5c4cccc5)CC3)c(Cl)cc2N1

> <standard_relation>
=

> <Publication_ID>
nan

> <predicted_activity_value>
nan

> <actual_activity_value>
0.7721132953863264

> <Compound>
Ziprasidone

> <standard_units>
uM

> hash
13771276454143521524

$$$$
55
XXILIB    08252103503D 0   0.00000     0.00000

 28 32  0     1  0            999 V2000
    3.6784   -2.7512   -1.2147 Cl  0  0  0  0  0  1           0  0  0
   -5.9920   -2.1797    1.7771 S   0  0  0  0  0  2           0  0  0
    9.0810    2.2991   -0.5530 O   0  0  0  0  0  2           0  0  0
   -4.7527   -1.1394    1.5226 N   0  0  0  0  0  3           0  0  0
   -2.5974   -1.0739    0.5451 N   0  0  2  0  0  3           0  0  0
    7.7813    0.3466   -0.7180 N   0  0  0  0  0  3           0  0  0
    0.0000    0.0000    0.0000 N   0  0  2  0  0  3           0  0  0
    4.4346   -1.1971   -1.1175 C   0  0  0  0  0  4           0  0  0
   -5.2748   -3.5266    1.0075 C   0  0  0  0  0  4           0  0  0
   -3.7517   -1.7390    0.8656 C   0  0  0  0  0  4           0  0  0
    6.4287    0.0673   -0.8779 C   0  0  0  0  0  4           0  0  0
   -4.0121   -3.1467    0.5332 C   0  0  0  0  0  4           0  0  0
    3.6757    0.0000   -1.1983 C   0  0  0  0  0  4           0  0  0
    5.7114    1.2548   -0.9517 C   0  0  0  0  0  4           0  0  0
    5.8257   -1.1697   -0.9566 C   0  0  0  0  0  4           0  0  0
   -5.8016   -4.8198    0.8429 C   0  0  0  0  0  4           0  0  0
   -3.2659   -4.1498   -0.1430 C   0  0  0  0  0  4           0  0  0
    4.3384    1.2402   -1.1082 C   0  0  0  0  0  4           0  0  0
   -5.0335   -5.7719    0.1768 C   0  0  0  0  0  4           0  0  0
   -3.7792   -5.4422   -0.3118 C   0  0  0  0  0  4           0  0  0
    8.0100    1.7267   -0.6815 C   0  0  0  0  0  4           0  0  0
   -2.0732    0.0187    1.3652 C   0  0  0  0  0  4           0  0  0
   -2.0303   -1.1742   -0.8004 C   0  0  0  0  0  4           0  0  0
   -0.5420    0.0000    1.3684 C   0  0  0  0  0  4           0  0  0
   -0.5024   -1.1722   -0.7336 C   0  0  0  0  0  4           0  0  0
    1.4643   -0.0000   -0.0000 C   0  0  0  0  0  4           0  0  0
    6.6490    2.4143   -0.8363 C   0  0  0  0  0  4           0  0  0
    2.1816    0.0000   -1.3573 C   0  0  0  0  0  4           0  0  0
  1  8  1  0     0  0
  2  4  1  0     0  0
  2  9  1  0     0  0
  3 21  2  0     0  0
  4 10  2  0     0  0
  5 10  1  0     0  0
  5 22  1  0     0  0
  5 23  1  0     0  0
  6 11  1  0     0  0
  6 21  1  0     0  0
  7 24  1  0     0  0
  7 25  1  0     0  0
  7 26  1  0     0  0
  8 13  2  0     0  0
  8 15  1  0     0  0
  9 12  1  0     0  0
  9 16  2  0     0  0
 10 12  1  0     0  0
 11 14  1  0     0  0
 11 15  2  0     0  0
 12 17  2  0     0  0
 13 18  1  0     0  0
 13 28  1  0     0  0
 14 18  2  0     0  0
 14 27  1  0     0  0
 16 19  1  0     0  0
 17 20  1  0     0  0
 19 20  2  0     0  0
 21 27  1  0     0  0
 22 24  1  0     0  0
 23 25  1  0     0  0
 26 28  1  0     0  0
M  END
> <standard_type>
pIC50

> <# Confs.>
25

> <canonical_smiles>
O=C1Cc2cc(CCN3CCN(c(ns4)c5c4cccc5)CC3)c(Cl)cc2N1

> <standard_relation>
=

> <Publication_ID>
nan

> <predicted_activity_value>
nan

> <actual_activity_value>
0.7721132953863264

> <Compound>
Ziprasidone

> <standard_units>
uM

> hash
13771276454143521524

$$$$
55
XXILIB    08252103503D 0   0.00000     0.00000

 28 32  0     1  0            999 V2000
    3.6784    2.4276   -1.7753 Cl  0  0  0  0  0  1           0  0  0
   -5.3621   -3.1064    2.1229 S   0  0  0  0  0  2           0  0  0
    9.0810   -0.6707    2.2676 O   0  0  0  0  0  2           0  0  0
   -3.8873   -2.4010    2.0216 N   0  0  0  0  0  3           0  0  0
   -2.5974   -1.0739    0.5451 N   0  0  2  0  0  3           0  0  0
    7.7813    0.4485    0.6591 N   0  0  0  0  0  3           0  0  0
    0.0000    0.0000    0.0000 N   0  0  2  0  0  3           0  0  0
    4.4346    1.5663   -0.4780 C   0  0  0  0  0  4           0  0  0
   -5.9408   -2.5625    0.6095 C   0  0  0  0  0  4           0  0  0
   -3.7517   -1.7390    0.8656 C   0  0  0  0  0  4           0  0  0
    6.4287    0.7266    0.4973 C   0  0  0  0  0  4           0  0  0
   -4.9372   -1.7985   -0.0011 C   0  0  0  0  0  4           0  0  0
    3.6757    1.0377    0.5991 C   0  0  0  0  0  4           0  0  0
    5.7114    0.1967    1.5626 C   0  0  0  0  0  4           0  0  0
    5.8257    1.4133   -0.5347 C   0  0  0  0  0  4           0  0  0
   -7.1933   -2.8021    0.0174 C   0  0  0  0  0  4           0  0  0
   -5.2473   -1.2578   -1.2784 C   0  0  0  0  0  4           0  0  0
    4.3384    0.3396    1.6281 C   0  0  0  0  0  4           0  0  0
   -7.4522   -2.2551   -1.2372 C   0  0  0  0  0  4           0  0  0
   -6.4911   -1.4908   -1.8795 C   0  0  0  0  0  4           0  0  0
    8.0100   -0.2732    1.8361 C   0  0  0  0  0  4           0  0  0
   -2.0732    0.0187    1.3652 C   0  0  0  0  0  4           0  0  0
   -2.0303   -1.1742   -0.8004 C   0  0  0  0  0  4           0  0  0
   -0.5420    0.0000    1.3684 C   0  0  0  0  0  4           0  0  0
   -0.5024   -1.1722   -0.7336 C   0  0  0  0  0  4           0  0  0
    1.4643    0.0000   -0.0000 C   0  0  0  0  0  4           0  0  0
    6.6490   -0.4829    2.5090 C   0  0  0  0  0  4           0  0  0
    2.1816    1.1755    0.6787 C   0  0  0  0  0  4           0  0  0
  1  8  1  0     0  0
  2  4  1  0     0  0
  2  9  1  0     0  0
  3 21  2  0     0  0
  4 10  2  0     0  0
  5 10  1  0     0  0
  5 22  1  0     0  0
  5 23  1  0     0  0
  6 11  1  0     0  0
  6 21  1  0     0  0
  7 24  1  0     0  0
  7 25  1  0     0  0
  7 26  1  0     0  0
  8 13  2  0     0  0
  8 15  1  0     0  0
  9 12  1  0     0  0
  9 16  2  0     0  0
 10 12  1  0     0  0
 11 14  1  0     0  0
 11 15  2  0     0  0
 12 17  2  0     0  0
 13 18  1  0     0  0
 13 28  1  0     0  0
 14 18  2  0     0  0
 14 27  1  0     0  0
 16 19  1  0     0  0
 17 20  1  0     0  0
 19 20  2  0     0  0
 21 27  1  0     0  0
 22 24  1  0     0  0
 23 25  1  0     0  0
 26 28  1  0     0  0
M  END
> <standard_type>
pIC50

> <# Confs.>
25

> <canonical_smiles>
O=C1Cc2cc(CCN3CCN(c(ns4)c5c4cccc5)CC3)c(Cl)cc2N1

> <standard_relation>
=

> <Publication_ID>
nan

> <predicted_activity_value>
nan

> <actual_activity_value>
0.7721132953863264

> <Compound>
Ziprasidone

> <standard_units>
uM

> hash
13771276454143521524

$$$$
55
XXILIB    08252103503D 0   0.00000     0.00000

 28 32  0     1  0            999 V2000
    3.6749    2.7512   -1.1817 Cl  0  0  0  0  0  1           0  0  0
   -5.4110   -3.5450    1.0364 S   0  0  0  0  0  2           0  0  0
    9.0957   -2.2991   -0.6911 O   0  0  0  0  0  2           0  0  0
   -3.9401   -3.0238    0.5387 N   0  0  0  0  0  3           0  0  0
   -2.5974   -1.0739    0.5451 N   0  0  2  0  0  3           0  0  0
    7.7904   -0.3466   -0.8034 N   0  0  0  0  0  3           0  0  0
    0.0000    0.0000    0.0000 N   0  0  2  0  0  3           0  0  0
    4.4346    1.1971   -1.1175 C   0  0  0  0  0  4           0  0  0
   -5.9085   -2.0715    1.7450 C   0  0  0  0  0  4           0  0  0
   -3.7517   -1.7390    0.8656 C   0  0  0  0  0  4           0  0  0
    6.4344   -0.0673   -0.9319 C   0  0  0  0  0  4           0  0  0
   -4.8813   -1.1321    1.5837 C   0  0  0  0  0  4           0  0  0
    3.6757    0.0000   -1.1983 C   0  0  0  0  0  4           0  0  0
    5.7177   -1.2548   -1.0108 C   0  0  0  0  0  4           0  0  0
    5.8284    1.1697   -0.9819 C   0  0  0  0  0  4           0  0  0
   -7.1222   -1.7812    2.3927 C   0  0  0  0  0  4           0  0  0
   -5.1222    0.1621    2.1196 C   0  0  0  0  0  4           0  0  0
    4.3425   -1.2402   -1.1469 C   0  0  0  0  0  4           0  0  0
   -7.3162   -0.4983    2.8995 C   0  0  0  0  0  4           0  0  0
   -6.3280    0.4641    2.7656 C   0  0  0  0  0  4           0  0  0
    8.0217   -1.7267   -0.7910 C   0  0  0  0  0  4           0  0  0
   -2.0732    0.0187    1.3652 C   0  0  0  0  0  4           0  0  0
   -2.0303   -1.1742   -0.8004 C   0  0  0  0  0  4           0  0  0
   -0.5420    0.0000    1.3684 C   0  0  0  0  0  4           0  0  0
   -0.5024   -1.1722   -0.7336 C   0  0  0  0  0  4           0  0  0
    1.4643   -0.0000    0.0000 C   0  0  0  0  0  4           0  0  0
    6.6585   -2.4143   -0.9262 C   0  0  0  0  0  4           0  0  0
    2.1816    0.0000   -1.3573 C   0  0  0  0  0  4           0  0  0
  1  8  1  0     0  0
  2  4  1  0     0  0
  2  9  1  0     0  0
  3 21  2  0     0  0
  4 10  2  0     0  0
  5 10  1  0     0  0
  5 22  1  0     0  0
  5 23  1  0     0  0
  6 11  1  0     0  0
  6 21  1  0     0  0
  7 24  1  0     0  0
  7 25  1  0     0  0
  7 26  1  0     0  0
  8 13  2  0     0  0
  8 15  1  0     0  0
  9 12  1  0     0  0
  9 16  2  0     0  0
 10 12  1  0     0  0
 11 14  1  0     0  0
 11 15  2  0     0  0
 12 17  2  0     0  0
 13 18  1  0     0  0
 13 28  1  0     0  0
 14 18  2  0     0  0
 14 27  1  0     0  0
 16 19  1  0     0  0
 17 20  1  0     0  0
 19 20  2  0     0  0
 21 27  1  0     0  0
 22 24  1  0     0  0
 23 25  1  0     0  0
 26 28  1  0     0  0
M  END
> <standard_type>
pIC50

> <# Confs.>
25

> <canonical_smiles>
O=C1Cc2cc(CCN3CCN(c(ns4)c5c4cccc5)CC3)c(Cl)cc2N1

> <standard_relation>
=

> <Publication_ID>
nan

> <predicted_activity_value>
nan

> <actual_activity_value>
0.7721132953863264

> <Compound>
Ziprasidone

> <standard_units>
uM

> hash
13771276454143521524

$$$$
55
XXILIB    08252103503D 0   0.00000     0.00000

 28 32  0     1  0            999 V2000
    3.6784   -2.7512   -1.2147 Cl  0  0  0  0  0  1           0  0  0
   -5.3621   -3.1064    2.1229 S   0  0  0  0  0  2           0  0  0
    9.0810    2.2991   -0.5530 O   0  0  0  0  0  2           0  0  0
   -3.8873   -2.4010    2.0216 N   0  0  0  0  0  3           0  0  0
   -2.5974   -1.0739    0.5451 N   0  0  2  0  0  3           0  0  0
    7.7813    0.3466   -0.7180 N   0  0  0  0  0  3           0  0  0
    0.0000    0.0000    0.0000 N   0  0  2  0  0  3           0  0  0
    4.4346   -1.1971   -1.1175 C   0  0  0  0  0  4           0  0  0
   -5.9408   -2.5625    0.6095 C   0  0  0  0  0  4           0  0  0
   -3.7517   -1.7390    0.8656 C   0  0  0  0  0  4           0  0  0
    6.4287    0.0673   -0.8779 C   0  0  0  0  0  4           0  0  0
   -4.9372   -1.7985   -0.0011 C   0  0  0  0  0  4           0  0  0
    3.6757    0.0000   -1.1983 C   0  0  0  0  0  4           0  0  0
    5.7114    1.2548   -0.9517 C   0  0  0  0  0  4           0  0  0
    5.8257   -1.1697   -0.9566 C   0  0  0  0  0  4           0  0  0
   -7.1933   -2.8021    0.0174 C   0  0  0  0  0  4           0  0  0
   -5.2473   -1.2578   -1.2784 C   0  0  0  0  0  4           0  0  0
    4.3384    1.2402   -1.1082 C   0  0  0  0  0  4           0  0  0
   -7.4522   -2.2551   -1.2372 C   0  0  0  0  0  4           0  0  0
   -6.4911   -1.4908   -1.8795 C   0  0  0  0  0  4           0  0  0
    8.0100    1.7267   -0.6815 C   0  0  0  0  0  4           0  0  0
   -2.0732    0.0187    1.3652 C   0  0  0  0  0  4           0  0  0
   -2.0303   -1.1742   -0.8004 C   0  0  0  0  0  4           0  0  0
   -0.5420    0.0000    1.3684 C   0  0  0  0  0  4           0  0  0
   -0.5024   -1.1722   -0.7336 C   0  0  0  0  0  4           0  0  0
    1.4643   -0.0000   -0.0000 C   0  0  0  0  0  4           0  0  0
    6.6490    2.4143   -0.8363 C   0  0  0  0  0  4           0  0  0
    2.1816    0.0000   -1.3573 C   0  0  0  0  0  4           0  0  0
  1  8  1  0     0  0
  2  4  1  0     0  0
  2  9  1  0     0  0
  3 21  2  0     0  0
  4 10  2  0     0  0
  5 10  1  0     0  0
  5 22  1  0     0  0
  5 23  1  0     0  0
  6 11  1  0     0  0
  6 21  1  0     0  0
  7 24  1  0     0  0
  7 25  1  0     0  0
  7 26  1  0     0  0
  8 13  2  0     0  0
  8 15  1  0     0  0
  9 12  1  0     0  0
  9 16  2  0     0  0
 10 12  1  0     0  0
 11 14  1  0     0  0
 11 15  2  0     0  0
 12 17  2  0     0  0
 13 18  1  0     0  0
 13 28  1  0     0  0
 14 18  2  0     0  0
 14 27  1  0     0  0
 16 19  1  0     0  0
 17 20  1  0     0  0
 19 20  2  0     0  0
 21 27  1  0     0  0
 22 24  1  0     0  0
 23 25  1  0     0  0
 26 28  1  0     0  0
M  END
> <standard_type>
pIC50

> <# Confs.>
25

> <canonical_smiles>
O=C1Cc2cc(CCN3CCN(c(ns4)c5c4cccc5)CC3)c(Cl)cc2N1

> <standard_relation>
=

> <Publication_ID>
nan

> <predicted_activity_value>
nan

> <actual_activity_value>
0.7721132953863264

> <Compound>
Ziprasidone

> <standard_units>
uM

> hash
13771276454143521524

$$$$
55
XXILIB    08252103503D 0   0.00000     0.00000

 28 32  0     1  0            999 V2000
    3.6749   -0.3523    2.9735 Cl  0  0  0  0  0  1           0  0  0
   -2.0515   -5.2606    3.5065 S   0  0  0  0  0  2           0  0  0
    9.0957    1.7481   -1.6455 O   0  0  0  0  0  2           0  0  0
   -1.1930   -3.9318    3.0821 N   0  0  0  0  0  3           0  0  0
   -0.9191   -2.4412    1.2634 N   0  0  2  0  0  3           0  0  0
    7.7904    0.8691    0.1016 N   0  0  0  0  0  3           0  0  0
    0.0000    0.0000    0.0000 N   0  0  2  0  0  3           0  0  0
    4.4346    0.3692    1.5954 C   0  0  0  0  0  4           0  0  0
   -2.9358   -5.3928    2.0500 C   0  0  0  0  0  4           0  0  0
   -1.5137   -3.5296    1.8458 C   0  0  0  0  0  4           0  0  0
    6.4344    0.8407    0.4076 C   0  0  0  0  0  4           0  0  0
   -2.5414   -4.3547    1.1953 C   0  0  0  0  0  4           0  0  0
    3.6757    1.0377    0.5991 C   0  0  0  0  0  4           0  0  0
    5.7177    1.5028   -0.5813 C   0  0  0  0  0  4           0  0  0
    5.8284    0.2655    1.5040 C   0  0  0  0  0  4           0  0  0
   -3.9045   -6.3504    1.7016 C   0  0  0  0  0  4           0  0  0
   -3.1812   -4.3063   -0.0729 C   0  0  0  0  0  4           0  0  0
    4.3425    1.6133   -0.5006 C   0  0  0  0  0  4           0  0  0
   -4.5029   -6.2661    0.4467 C   0  0  0  0  0  4           0  0  0
   -4.1467   -5.2555   -0.4322 C   0  0  0  0  0  4           0  0  0
    8.0217    1.5484   -1.0998 C   0  0  0  0  0  4           0  0  0
   -0.4466   -1.3290    2.0924 C   0  0  0  0  0  4           0  0  0
   -0.3989   -2.4843   -0.1057 C   0  0  0  0  0  4           0  0  0
   -0.5913    0.0000    1.3456 C   0  0  0  0  0  4           0  0  0
   -0.5491   -1.1173   -0.7803 C   0  0  0  0  0  4           0  0  0
    1.4643   -0.0000   -0.0000 C   0  0  0  0  0  4           0  0  0
    6.6585    2.0093   -1.6278 C   0  0  0  0  0  4           0  0  0
    2.1816    1.1755    0.6787 C   0  0  0  0  0  4           0  0  0
  1  8  1  0     0  0
  2  4  1  0     0  0
  2  9  1  0     0  0
  3 21  2  0     0  0
  4 10  2  0     0  0
  5 10  1  0     0  0
  5 22  1  0     0  0
  5 23  1  0     0  0
  6 11  1  0     0  0
  6 21  1  0     0  0
  7 24  1  0     0  0
  7 25  1  0     0  0
  7 26  1  0     0  0
  8 13  2  0     0  0
  8 15  1  0     0  0
  9 12  1  0     0  0
  9 16  2  0     0  0
 10 12  1  0     0  0
 11 14  1  0     0  0
 11 15  2  0     0  0
 12 17  2  0     0  0
 13 18  1  0     0  0
 13 28  1  0     0  0
 14 18  2  0     0  0
 14 27  1  0     0  0
 16 19  1  0     0  0
 17 20  1  0     0  0
 19 20  2  0     0  0
 21 27  1  0     0  0
 22 24  1  0     0  0
 23 25  1  0     0  0
 26 28  1  0     0  0
M  END
> <standard_type>
pIC50

> <# Confs.>
25

> <canonical_smiles>
O=C1Cc2cc(CCN3CCN(c(ns4)c5c4cccc5)CC3)c(Cl)cc2N1

> <standard_relation>
=

> <Publication_ID>
nan

> <predicted_activity_value>
nan

> <actual_activity_value>
0.7721132953863264

> <Compound>
Ziprasidone

> <standard_units>
uM

> hash
13771276454143521524

$$$$
55
XXILIB    08252103503D 0   0.00000     0.00000

 28 32  0     1  0            999 V2000
    3.6784    0.3236    2.9900 Cl  0  0  0  0  0  1           0  0  0
   -5.4110   -3.5450    1.0364 S   0  0  0  0  0  2           0  0  0
    9.0810   -1.6284   -1.7146 O   0  0  0  0  0  2           0  0  0
   -3.9401   -3.0238    0.5387 N   0  0  0  0  0  3           0  0  0
   -2.5974   -1.0739    0.5451 N   0  0  2  0  0  3           0  0  0
    7.7813   -0.7951    0.0589 N   0  0  0  0  0  3           0  0  0
    0.0000    0.0000    0.0000 N   0  0  2  0  0  3           0  0  0
    4.4346   -0.3692    1.5954 C   0  0  0  0  0  4           0  0  0
   -5.9085   -2.0715    1.7450 C   0  0  0  0  0  4           0  0  0
   -3.7517   -1.7390    0.8656 C   0  0  0  0  0  4           0  0  0
    6.4287   -0.7940    0.3807 C   0  0  0  0  0  4           0  0  0
   -4.8813   -1.1321    1.5837 C   0  0  0  0  0  4           0  0  0
    3.6757   -1.0377    0.5991 C   0  0  0  0  0  4           0  0  0
    5.7114   -1.4516   -0.6109 C   0  0  0  0  0  4           0  0  0
    5.8257   -0.2436    1.4913 C   0  0  0  0  0  4           0  0  0
   -7.1222   -1.7812    2.3927 C   0  0  0  0  0  4           0  0  0
   -5.1222    0.1621    2.1196 C   0  0  0  0  0  4           0  0  0
    4.3384   -1.5798   -0.5199 C   0  0  0  0  0  4           0  0  0
   -7.3162   -0.4983    2.8995 C   0  0  0  0  0  4           0  0  0
   -6.3280    0.4641    2.7656 C   0  0  0  0  0  4           0  0  0
    8.0100   -1.4535   -1.1546 C   0  0  0  0  0  4           0  0  0
   -2.0732    0.0187    1.3652 C   0  0  0  0  0  4           0  0  0
   -2.0303   -1.1742   -0.8004 C   0  0  0  0  0  4           0  0  0
   -0.5420    0.0000    1.3684 C   0  0  0  0  0  4           0  0  0
   -0.5024   -1.1722   -0.7336 C   0  0  0  0  0  4           0  0  0
    1.4643    0.0000    0.0000 C   0  0  0  0  0  4           0  0  0
    6.6490   -1.9314   -1.6727 C   0  0  0  0  0  4           0  0  0
    2.1816   -1.1755    0.6787 C   0  0  0  0  0  4           0  0  0
  1  8  1  0     0  0
  2  4  1  0     0  0
  2  9  1  0     0  0
  3 21  2  0     0  0
  4 10  2  0     0  0
  5 10  1  0     0  0
  5 22  1  0     0  0
  5 23  1  0     0  0
  6 11  1  0     0  0
  6 21  1  0     0  0
  7 24  1  0     0  0
  7 25  1  0     0  0
  7 26  1  0     0  0
  8 13  2  0     0  0
  8 15  1  0     0  0
  9 12  1  0     0  0
  9 16  2  0     0  0
 10 12  1  0     0  0
 11 14  1  0     0  0
 11 15  2  0     0  0
 12 17  2  0     0  0
 13 18  1  0     0  0
 13 28  1  0     0  0
 14 18  2  0     0  0
 14 27  1  0     0  0
 16 19  1  0     0  0
 17 20  1  0     0  0
 19 20  2  0     0  0
 21 27  1  0     0  0
 22 24  1  0     0  0
 23 25  1  0     0  0
 26 28  1  0     0  0
M  END
> <standard_type>
pIC50

> <# Confs.>
25

> <canonical_smiles>
O=C1Cc2cc(CCN3CCN(c(ns4)c5c4cccc5)CC3)c(Cl)cc2N1

> <standard_relation>
=

> <Publication_ID>
nan

> <predicted_activity_value>
nan

> <actual_activity_value>
0.7721132953863264

> <Compound>
Ziprasidone

> <standard_units>
uM

> hash
13771276454143521524

$$$$
55
XXILIB    08252103503D 0   0.00000     0.00000

 28 32  0     1  0            999 V2000
    3.6749   -2.3990   -1.7918 Cl  0  0  0  0  0  1           0  0  0
   -5.4110   -3.5450    1.0364 S   0  0  0  0  0  2           0  0  0
    9.0957    0.5510    2.3367 O   0  0  0  0  0  2           0  0  0
   -3.9401   -3.0238    0.5387 N   0  0  0  0  0  3           0  0  0
   -2.5974   -1.0739    0.5451 N   0  0  2  0  0  3           0  0  0
    7.7904   -0.5225    0.7018 N   0  0  0  0  0  3           0  0  0
    0.0000    0.0000    0.0000 N   0  0  2  0  0  3           0  0  0
    4.4346   -1.5663   -0.4780 C   0  0  0  0  0  4           0  0  0
   -5.9085   -2.0715    1.7450 C   0  0  0  0  0  4           0  0  0
   -3.7517   -1.7390    0.8656 C   0  0  0  0  0  4           0  0  0
    6.4344   -0.7733    0.5242 C   0  0  0  0  0  4           0  0  0
   -4.8813   -1.1321    1.5837 C   0  0  0  0  0  4           0  0  0
    3.6757   -1.0377    0.5991 C   0  0  0  0  0  4           0  0  0
    5.7177   -0.2479    1.5921 C   0  0  0  0  0  4           0  0  0
    5.8284   -1.4352   -0.5220 C   0  0  0  0  0  4           0  0  0
   -7.1222   -1.7812    2.3927 C   0  0  0  0  0  4           0  0  0
   -5.1222    0.1621    2.1196 C   0  0  0  0  0  4           0  0  0
    4.3425   -0.3731    1.6474 C   0  0  0  0  0  4           0  0  0
   -7.3162   -0.4983    2.8995 C   0  0  0  0  0  4           0  0  0
   -6.3280    0.4641    2.7656 C   0  0  0  0  0  4           0  0  0
    8.0217    0.1783    1.8908 C   0  0  0  0  0  4           0  0  0
   -2.0732    0.0187    1.3652 C   0  0  0  0  0  4           0  0  0
   -2.0303   -1.1742   -0.8004 C   0  0  0  0  0  4           0  0  0
   -0.5420    0.0000    1.3684 C   0  0  0  0  0  4           0  0  0
   -0.5024   -1.1722   -0.7336 C   0  0  0  0  0  4           0  0  0
    1.4643    0.0000   -0.0000 C   0  0  0  0  0  4           0  0  0
    6.6585    0.4050    2.5540 C   0  0  0  0  0  4           0  0  0
    2.1816   -1.1755    0.6787 C   0  0  0  0  0  4           0  0  0
  1  8  1  0     0  0
  2  4  1  0     0  0
  2  9  1  0     0  0
  3 21  2  0     0  0
  4 10  2  0     0  0
  5 10  1  0     0  0
  5 22  1  0     0  0
  5 23  1  0     0  0
  6 11  1  0     0  0
  6 21  1  0     0  0
  7 24  1  0     0  0
  7 25  1  0     0  0
  7 26  1  0     0  0
  8 13  2  0     0  0
  8 15  1  0     0  0
  9 12  1  0     0  0
  9 16  2  0     0  0
 10 12  1  0     0  0
 11 14  1  0     0  0
 11 15  2  0     0  0
 12 17  2  0     0  0
 13 18  1  0     0  0
 13 28  1  0     0  0
 14 18  2  0     0  0
 14 27  1  0     0  0
 16 19  1  0     0  0
 17 20  1  0     0  0
 19 20  2  0     0  0
 21 27  1  0     0  0
 22 24  1  0     0  0
 23 25  1  0     0  0
 26 28  1  0     0  0
M  END
> <standard_type>
pIC50

> <# Confs.>
25

> <canonical_smiles>
O=C1Cc2cc(CCN3CCN(c(ns4)c5c4cccc5)CC3)c(Cl)cc2N1

> <standard_relation>
=

> <Publication_ID>
nan

> <predicted_activity_value>
nan

> <actual_activity_value>
0.7721132953863264

> <Compound>
Ziprasidone

> <standard_units>
uM

> hash
13771276454143521524

$$$$
55
XXILIB    08252103503D 0   0.00000     0.00000

 28 32  0     1  0            999 V2000
    3.6749    2.7512   -1.1817 Cl  0  0  0  0  0  1           0  0  0
   -5.9920   -2.1797    1.7771 S   0  0  0  0  0  2           0  0  0
    9.0957   -2.2991   -0.6911 O   0  0  0  0  0  2           0  0  0
   -4.7527   -1.1394    1.5226 N   0  0  0  0  0  3           0  0  0
   -2.5974   -1.0739    0.5451 N   0  0  2  0  0  3           0  0  0
    7.7904   -0.3466   -0.8034 N   0  0  0  0  0  3           0  0  0
    0.0000    0.0000    0.0000 N   0  0  2  0  0  3           0  0  0
    4.4346    1.1971   -1.1175 C   0  0  0  0  0  4           0  0  0
   -5.2748   -3.5266    1.0075 C   0  0  0  0  0  4           0  0  0
   -3.7517   -1.7390    0.8656 C   0  0  0  0  0  4           0  0  0
    6.4344   -0.0673   -0.9319 C   0  0  0  0  0  4           0  0  0
   -4.0121   -3.1467    0.5332 C   0  0  0  0  0  4           0  0  0
    3.6757    0.0000   -1.1983 C   0  0  0  0  0  4           0  0  0
    5.7177   -1.2548   -1.0108 C   0  0  0  0  0  4           0  0  0
    5.8284    1.1697   -0.9819 C   0  0  0  0  0  4           0  0  0
   -5.8016   -4.8198    0.8429 C   0  0  0  0  0  4           0  0  0
   -3.2659   -4.1498   -0.1430 C   0  0  0  0  0  4           0  0  0
    4.3425   -1.2402   -1.1469 C   0  0  0  0  0  4           0  0  0
   -5.0335   -5.7719    0.1768 C   0  0  0  0  0  4           0  0  0
   -3.7792   -5.4422   -0.3118 C   0  0  0  0  0  4           0  0  0
    8.0217   -1.7267   -0.7910 C   0  0  0  0  0  4           0  0  0
   -2.0732    0.0187    1.3652 C   0  0  0  0  0  4           0  0  0
   -2.0303   -1.1742   -0.8004 C   0  0  0  0  0  4           0  0  0
   -0.5420    0.0000    1.3684 C   0  0  0  0  0  4           0  0  0
   -0.5024   -1.1722   -0.7336 C   0  0  0  0  0  4           0  0  0
    1.4643   -0.0000    0.0000 C   0  0  0  0  0  4           0  0  0
    6.6585   -2.4143   -0.9262 C   0  0  0  0  0  4           0  0  0
    2.1816    0.0000   -1.3573 C   0  0  0  0  0  4           0  0  0
  1  8  1  0     0  0
  2  4  1  0     0  0
  2  9  1  0     0  0
  3 21  2  0     0  0
  4 10  2  0     0  0
  5 10  1  0     0  0
  5 22  1  0     0  0
  5 23  1  0     0  0
  6 11  1  0     0  0
  6 21  1  0     0  0
  7 24  1  0     0  0
  7 25  1  0     0  0
  7 26  1  0     0  0
  8 13  2  0     0  0
  8 15  1  0     0  0
  9 12  1  0     0  0
  9 16  2  0     0  0
 10 12  1  0     0  0
 11 14  1  0     0  0
 11 15  2  0     0  0
 12 17  2  0     0  0
 13 18  1  0     0  0
 13 28  1  0     0  0
 14 18  2  0     0  0
 14 27  1  0     0  0
 16 19  1  0     0  0
 17 20  1  0     0  0
 19 20  2  0     0  0
 21 27  1  0     0  0
 22 24  1  0     0  0
 23 25  1  0     0  0
 26 28  1  0     0  0
M  END
> <standard_type>
pIC50

> <# Confs.>
25

> <canonical_smiles>
O=C1Cc2cc(CCN3CCN(c(ns4)c5c4cccc5)CC3)c(Cl)cc2N1

> <standard_relation>
=

> <Publication_ID>
nan

> <predicted_activity_value>
nan

> <actual_activity_value>
0.7721132953863264

> <Compound>
Ziprasidone

> <standard_units>
uM

> hash
13771276454143521524

$$$$
55
XXILIB    08252103503D 0   0.00000     0.00000

 28 32  0     1  0            999 V2000
    3.6749   -2.3990   -1.7918 Cl  0  0  0  0  0  1           0  0  0
   -5.9920   -2.1797    1.7771 S   0  0  0  0  0  2           0  0  0
    9.0957    0.5510    2.3367 O   0  0  0  0  0  2           0  0  0
   -4.7527   -1.1394    1.5226 N   0  0  0  0  0  3           0  0  0
   -2.5974   -1.0739    0.5451 N   0  0  2  0  0  3           0  0  0
    7.7904   -0.5225    0.7018 N   0  0  0  0  0  3           0  0  0
    0.0000    0.0000    0.0000 N   0  0  2  0  0  3           0  0  0
    4.4346   -1.5663   -0.4780 C   0  0  0  0  0  4           0  0  0
   -5.2748   -3.5266    1.0075 C   0  0  0  0  0  4           0  0  0
   -3.7517   -1.7390    0.8656 C   0  0  0  0  0  4           0  0  0
    6.4344   -0.7733    0.5242 C   0  0  0  0  0  4           0  0  0
   -4.0121   -3.1467    0.5332 C   0  0  0  0  0  4           0  0  0
    3.6757   -1.0377    0.5991 C   0  0  0  0  0  4           0  0  0
    5.7177   -0.2479    1.5921 C   0  0  0  0  0  4           0  0  0
    5.8284   -1.4352   -0.5220 C   0  0  0  0  0  4           0  0  0
   -5.8016   -4.8198    0.8429 C   0  0  0  0  0  4           0  0  0
   -3.2659   -4.1498   -0.1430 C   0  0  0  0  0  4           0  0  0
    4.3425   -0.3731    1.6474 C   0  0  0  0  0  4           0  0  0
   -5.0335   -5.7719    0.1768 C   0  0  0  0  0  4           0  0  0
   -3.7792   -5.4422   -0.3118 C   0  0  0  0  0  4           0  0  0
    8.0217    0.1783    1.8908 C   0  0  0  0  0  4           0  0  0
   -2.0732    0.0187    1.3652 C   0  0  0  0  0  4           0  0  0
   -2.0303   -1.1742   -0.8004 C   0  0  0  0  0  4           0  0  0
   -0.5420    0.0000    1.3684 C   0  0  0  0  0  4           0  0  0
   -0.5024   -1.1722   -0.7336 C   0  0  0  0  0  4           0  0  0
    1.4643    0.0000   -0.0000 C   0  0  0  0  0  4           0  0  0
    6.6585    0.4050    2.5540 C   0  0  0  0  0  4           0  0  0
    2.1816   -1.1755    0.6787 C   0  0  0  0  0  4           0  0  0
  1  8  1  0     0  0
  2  4  1  0     0  0
  2  9  1  0     0  0
  3 21  2  0     0  0
  4 10  2  0     0  0
  5 10  1  0     0  0
  5 22  1  0     0  0
  5 23  1  0     0  0
  6 11  1  0     0  0
  6 21  1  0     0  0
  7 24  1  0     0  0
  7 25  1  0     0  0
  7 26  1  0     0  0
  8 13  2  0     0  0
  8 15  1  0     0  0
  9 12  1  0     0  0
  9 16  2  0     0  0
 10 12  1  0     0  0
 11 14  1  0     0  0
 11 15  2  0     0  0
 12 17  2  0     0  0
 13 18  1  0     0  0
 13 28  1  0     0  0
 14 18  2  0     0  0
 14 27  1  0     0  0
 16 19  1  0     0  0
 17 20  1  0     0  0
 19 20  2  0     0  0
 21 27  1  0     0  0
 22 24  1  0     0  0
 23 25  1  0     0  0
 26 28  1  0     0  0
M  END
> <standard_type>
pIC50

> <# Confs.>
25

> <canonical_smiles>
O=C1Cc2cc(CCN3CCN(c(ns4)c5c4cccc5)CC3)c(Cl)cc2N1

> <standard_relation>
=

> <Publication_ID>
nan

> <predicted_activity_value>
nan

> <actual_activity_value>
0.7721132953863264

> <Compound>
Ziprasidone

> <standard_units>
uM

> hash
13771276454143521524

$$$$
55
XXILIB    08252103503D 0   0.00000     0.00000

 28 32  0     1  0            999 V2000
    3.6749    2.7512   -1.1817 Cl  0  0  0  0  0  1           0  0  0
   -5.3621   -3.1064    2.1229 S   0  0  0  0  0  2           0  0  0
    9.0957   -2.2991   -0.6911 O   0  0  0  0  0  2           0  0  0
   -3.8873   -2.4010    2.0216 N   0  0  0  0  0  3           0  0  0
   -2.5974   -1.0739    0.5451 N   0  0  2  0  0  3           0  0  0
    7.7904   -0.3466   -0.8034 N   0  0  0  0  0  3           0  0  0
    0.0000    0.0000    0.0000 N   0  0  2  0  0  3           0  0  0
    4.4346    1.1971   -1.1175 C   0  0  0  0  0  4           0  0  0
   -5.9408   -2.5625    0.6095 C   0  0  0  0  0  4           0  0  0
   -3.7517   -1.7390    0.8656 C   0  0  0  0  0  4           0  0  0
    6.4344   -0.0673   -0.9319 C   0  0  0  0  0  4           0  0  0
   -4.9372   -1.7985   -0.0011 C   0  0  0  0  0  4           0  0  0
    3.6757    0.0000   -1.1983 C   0  0  0  0  0  4           0  0  0
    5.7177   -1.2548   -1.0108 C   0  0  0  0  0  4           0  0  0
    5.8284    1.1697   -0.9819 C   0  0  0  0  0  4           0  0  0
   -7.1933   -2.8021    0.0174 C   0  0  0  0  0  4           0  0  0
   -5.2473   -1.2578   -1.2784 C   0  0  0  0  0  4           0  0  0
    4.3425   -1.2402   -1.1469 C   0  0  0  0  0  4           0  0  0
   -7.4522   -2.2551   -1.2372 C   0  0  0  0  0  4           0  0  0
   -6.4911   -1.4908   -1.8795 C   0  0  0  0  0  4           0  0  0
    8.0217   -1.7267   -0.7910 C   0  0  0  0  0  4           0  0  0
   -2.0732    0.0187    1.3652 C   0  0  0  0  0  4           0  0  0
   -2.0303   -1.1742   -0.8004 C   0  0  0  0  0  4           0  0  0
   -0.5420    0.0000    1.3684 C   0  0  0  0  0  4           0  0  0
   -0.5024   -1.1722   -0.7336 C   0  0  0  0  0  4           0  0  0
    1.4643   -0.0000    0.0000 C   0  0  0  0  0  4           0  0  0
    6.6585   -2.4143   -0.9262 C   0  0  0  0  0  4           0  0  0
    2.1816    0.0000   -1.3573 C   0  0  0  0  0  4           0  0  0
  1  8  1  0     0  0
  2  4  1  0     0  0
  2  9  1  0     0  0
  3 21  2  0     0  0
  4 10  2  0     0  0
  5 10  1  0     0  0
  5 22  1  0     0  0
  5 23  1  0     0  0
  6 11  1  0     0  0
  6 21  1  0     0  0
  7 24  1  0     0  0
  7 25  1  0     0  0
  7 26  1  0     0  0
  8 13  2  0     0  0
  8 15  1  0     0  0
  9 12  1  0     0  0
  9 16  2  0     0  0
 10 12  1  0     0  0
 11 14  1  0     0  0
 11 15  2  0     0  0
 12 17  2  0     0  0
 13 18  1  0     0  0
 13 28  1  0     0  0
 14 18  2  0     0  0
 14 27  1  0     0  0
 16 19  1  0     0  0
 17 20  1  0     0  0
 19 20  2  0     0  0
 21 27  1  0     0  0
 22 24  1  0     0  0
 23 25  1  0     0  0
 26 28  1  0     0  0
M  END
> <standard_type>
pIC50

> <# Confs.>
25

> <canonical_smiles>
O=C1Cc2cc(CCN3CCN(c(ns4)c5c4cccc5)CC3)c(Cl)cc2N1

> <standard_relation>
=

> <Publication_ID>
nan

> <predicted_activity_value>
nan

> <actual_activity_value>
0.7721132953863264

> <Compound>
Ziprasidone

> <standard_units>
uM

> hash
13771276454143521524

$$$$
55
XXILIB    08252103503D 0   0.00000     0.00000

 28 32  0     1  0            999 V2000
    3.6784    2.4276   -1.7753 Cl  0  0  0  0  0  1           0  0  0
   -2.0515   -5.2606    3.5065 S   0  0  0  0  0  2           0  0  0
    9.0810   -0.6707    2.2676 O   0  0  0  0  0  2           0  0  0
   -1.1930   -3.9318    3.0821 N   0  0  0  0  0  3           0  0  0
   -0.9191   -2.4412    1.2634 N   0  0  2  0  0  3           0  0  0
    7.7813    0.4485    0.6591 N   0  0  0  0  0  3           0  0  0
    0.0000    0.0000    0.0000 N   0  0  2  0  0  3           0  0  0
    4.4346    1.5663   -0.4780 C   0  0  0  0  0  4           0  0  0
   -2.9358   -5.3928    2.0500 C   0  0  0  0  0  4           0  0  0
   -1.5137   -3.5296    1.8458 C   0  0  0  0  0  4           0  0  0
    6.4287    0.7266    0.4973 C   0  0  0  0  0  4           0  0  0
   -2.5414   -4.3547    1.1953 C   0  0  0  0  0  4           0  0  0
    3.6757    1.0377    0.5991 C   0  0  0  0  0  4           0  0  0
    5.7114    0.1967    1.5626 C   0  0  0  0  0  4           0  0  0
    5.8257    1.4133   -0.5347 C   0  0  0  0  0  4           0  0  0
   -3.9045   -6.3504    1.7016 C   0  0  0  0  0  4           0  0  0
   -3.1812   -4.3063   -0.0729 C   0  0  0  0  0  4           0  0  0
    4.3384    0.3396    1.6281 C   0  0  0  0  0  4           0  0  0
   -4.5029   -6.2661    0.4467 C   0  0  0  0  0  4           0  0  0
   -4.1467   -5.2555   -0.4322 C   0  0  0  0  0  4           0  0  0
    8.0100   -0.2732    1.8361 C   0  0  0  0  0  4           0  0  0
   -0.4466   -1.3290    2.0924 C   0  0  0  0  0  4           0  0  0
   -0.3989   -2.4843   -0.1057 C   0  0  0  0  0  4           0  0  0
   -0.5913    0.0000    1.3456 C   0  0  0  0  0  4           0  0  0
   -0.5491   -1.1173   -0.7803 C   0  0  0  0  0  4           0  0  0
    1.4643    0.0000   -0.0000 C   0  0  0  0  0  4           0  0  0
    6.6490   -0.4829    2.5090 C   0  0  0  0  0  4           0  0  0
    2.1816    1.1755    0.6787 C   0  0  0  0  0  4           0  0  0
  1  8  1  0     0  0
  2  4  1  0     0  0
  2  9  1  0     0  0
  3 21  2  0     0  0
  4 10  2  0     0  0
  5 10  1  0     0  0
  5 22  1  0     0  0
  5 23  1  0     0  0
  6 11  1  0     0  0
  6 21  1  0     0  0
  7 24  1  0     0  0
  7 25  1  0     0  0
  7 26  1  0     0  0
  8 13  2  0     0  0
  8 15  1  0     0  0
  9 12  1  0     0  0
  9 16  2  0     0  0
 10 12  1  0     0  0
 11 14  1  0     0  0
 11 15  2  0     0  0
 12 17  2  0     0  0
 13 18  1  0     0  0
 13 28  1  0     0  0
 14 18  2  0     0  0
 14 27  1  0     0  0
 16 19  1  0     0  0
 17 20  1  0     0  0
 19 20  2  0     0  0
 21 27  1  0     0  0
 22 24  1  0     0  0
 23 25  1  0     0  0
 26 28  1  0     0  0
M  END
> <standard_type>
pIC50

> <# Confs.>
25

> <canonical_smiles>
O=C1Cc2cc(CCN3CCN(c(ns4)c5c4cccc5)CC3)c(Cl)cc2N1

> <standard_relation>
=

> <Publication_ID>
nan

> <predicted_activity_value>
nan

> <actual_activity_value>
0.7721132953863264

> <Compound>
Ziprasidone

> <standard_units>
uM

> hash
13771276454143521524

$$$$
55
XXILIB    08252103503D 0   0.00000     0.00000

 28 32  0     1  0            999 V2000
    3.6784    0.3236    2.9900 Cl  0  0  0  0  0  1           0  0  0
   -5.9920   -2.1797    1.7771 S   0  0  0  0  0  2           0  0  0
    9.0810   -1.6284   -1.7146 O   0  0  0  0  0  2           0  0  0
   -4.7527   -1.1394    1.5226 N   0  0  0  0  0  3           0  0  0
   -2.5974   -1.0739    0.5451 N   0  0  2  0  0  3           0  0  0
    7.7813   -0.7951    0.0589 N   0  0  0  0  0  3           0  0  0
    0.0000    0.0000    0.0000 N   0  0  2  0  0  3           0  0  0
    4.4346   -0.3692    1.5954 C   0  0  0  0  0  4           0  0  0
   -5.2748   -3.5266    1.0075 C   0  0  0  0  0  4           0  0  0
   -3.7517   -1.7390    0.8656 C   0  0  0  0  0  4           0  0  0
    6.4287   -0.7940    0.3807 C   0  0  0  0  0  4           0  0  0
   -4.0121   -3.1467    0.5332 C   0  0  0  0  0  4           0  0  0
    3.6757   -1.0377    0.5991 C   0  0  0  0  0  4           0  0  0
    5.7114   -1.4516   -0.6109 C   0  0  0  0  0  4           0  0  0
    5.8257   -0.2436    1.4913 C   0  0  0  0  0  4           0  0  0
   -5.8016   -4.8198    0.8429 C   0  0  0  0  0  4           0  0  0
   -3.2659   -4.1498   -0.1430 C   0  0  0  0  0  4           0  0  0
    4.3384   -1.5798   -0.5199 C   0  0  0  0  0  4           0  0  0
   -5.0335   -5.7719    0.1768 C   0  0  0  0  0  4           0  0  0
   -3.7792   -5.4422   -0.3118 C   0  0  0  0  0  4           0  0  0
    8.0100   -1.4535   -1.1546 C   0  0  0  0  0  4           0  0  0
   -2.0732    0.0187    1.3652 C   0  0  0  0  0  4           0  0  0
   -2.0303   -1.1742   -0.8004 C   0  0  0  0  0  4           0  0  0
   -0.5420    0.0000    1.3684 C   0  0  0  0  0  4           0  0  0
   -0.5024   -1.1722   -0.7336 C   0  0  0  0  0  4           0  0  0
    1.4643    0.0000    0.0000 C   0  0  0  0  0  4           0  0  0
    6.6490   -1.9314   -1.6727 C   0  0  0  0  0  4           0  0  0
    2.1816   -1.1755    0.6787 C   0  0  0  0  0  4           0  0  0
  1  8  1  0     0  0
  2  4  1  0     0  0
  2  9  1  0     0  0
  3 21  2  0     0  0
  4 10  2  0     0  0
  5 10  1  0     0  0
  5 22  1  0     0  0
  5 23  1  0     0  0
  6 11  1  0     0  0
  6 21  1  0     0  0
  7 24  1  0     0  0
  7 25  1  0     0  0
  7 26  1  0     0  0
  8 13  2  0     0  0
  8 15  1  0     0  0
  9 12  1  0     0  0
  9 16  2  0     0  0
 10 12  1  0     0  0
 11 14  1  0     0  0
 11 15  2  0     0  0
 12 17  2  0     0  0
 13 18  1  0     0  0
 13 28  1  0     0  0
 14 18  2  0     0  0
 14 27  1  0     0  0
 16 19  1  0     0  0
 17 20  1  0     0  0
 19 20  2  0     0  0
 21 27  1  0     0  0
 22 24  1  0     0  0
 23 25  1  0     0  0
 26 28  1  0     0  0
M  END
> <standard_type>
pIC50

> <# Confs.>
25

> <canonical_smiles>
O=C1Cc2cc(CCN3CCN(c(ns4)c5c4cccc5)CC3)c(Cl)cc2N1

> <standard_relation>
=

> <Publication_ID>
nan

> <predicted_activity_value>
nan

> <actual_activity_value>
0.7721132953863264

> <Compound>
Ziprasidone

> <standard_units>
uM

> hash
13771276454143521524

$$$$
55
XXILIB    08252103503D 0   0.00000     0.00000

 28 32  0     1  0            999 V2000
    3.6749   -2.3990   -1.7918 Cl  0  0  0  0  0  1           0  0  0
   -5.3621   -3.1064    2.1229 S   0  0  0  0  0  2           0  0  0
    9.0957    0.5510    2.3367 O   0  0  0  0  0  2           0  0  0
   -3.8873   -2.4010    2.0216 N   0  0  0  0  0  3           0  0  0
   -2.5974   -1.0739    0.5451 N   0  0  2  0  0  3           0  0  0
    7.7904   -0.5225    0.7018 N   0  0  0  0  0  3           0  0  0
    0.0000    0.0000    0.0000 N   0  0  2  0  0  3           0  0  0
    4.4346   -1.5663   -0.4780 C   0  0  0  0  0  4           0  0  0
   -5.9408   -2.5625    0.6095 C   0  0  0  0  0  4           0  0  0
   -3.7517   -1.7390    0.8656 C   0  0  0  0  0  4           0  0  0
    6.4344   -0.7733    0.5242 C   0  0  0  0  0  4           0  0  0
   -4.9372   -1.7985   -0.0011 C   0  0  0  0  0  4           0  0  0
    3.6757   -1.0377    0.5991 C   0  0  0  0  0  4           0  0  0
    5.7177   -0.2479    1.5921 C   0  0  0  0  0  4           0  0  0
    5.8284   -1.4352   -0.5220 C   0  0  0  0  0  4           0  0  0
   -7.1933   -2.8021    0.0174 C   0  0  0  0  0  4           0  0  0
   -5.2473   -1.2578   -1.2784 C   0  0  0  0  0  4           0  0  0
    4.3425   -0.3731    1.6474 C   0  0  0  0  0  4           0  0  0
   -7.4522   -2.2551   -1.2372 C   0  0  0  0  0  4           0  0  0
   -6.4911   -1.4908   -1.8795 C   0  0  0  0  0  4           0  0  0
    8.0217    0.1783    1.8908 C   0  0  0  0  0  4           0  0  0
   -2.0732    0.0187    1.3652 C   0  0  0  0  0  4           0  0  0
   -2.0303   -1.1742   -0.8004 C   0  0  0  0  0  4           0  0  0
   -0.5420    0.0000    1.3684 C   0  0  0  0  0  4           0  0  0
   -0.5024   -1.1722   -0.7336 C   0  0  0  0  0  4           0  0  0
    1.4643    0.0000   -0.0000 C   0  0  0  0  0  4           0  0  0
    6.6585    0.4050    2.5540 C   0  0  0  0  0  4           0  0  0
    2.1816   -1.1755    0.6787 C   0  0  0  0  0  4           0  0  0
  1  8  1  0     0  0
  2  4  1  0     0  0
  2  9  1  0     0  0
  3 21  2  0     0  0
  4 10  2  0     0  0
  5 10  1  0     0  0
  5 22  1  0     0  0
  5 23  1  0     0  0
  6 11  1  0     0  0
  6 21  1  0     0  0
  7 24  1  0     0  0
  7 25  1  0     0  0
  7 26  1  0     0  0
  8 13  2  0     0  0
  8 15  1  0     0  0
  9 12  1  0     0  0
  9 16  2  0     0  0
 10 12  1  0     0  0
 11 14  1  0     0  0
 11 15  2  0     0  0
 12 17  2  0     0  0
 13 18  1  0     0  0
 13 28  1  0     0  0
 14 18  2  0     0  0
 14 27  1  0     0  0
 16 19  1  0     0  0
 17 20  1  0     0  0
 19 20  2  0     0  0
 21 27  1  0     0  0
 22 24  1  0     0  0
 23 25  1  0     0  0
 26 28  1  0     0  0
M  END
> <standard_type>
pIC50

> <# Confs.>
25

> <canonical_smiles>
O=C1Cc2cc(CCN3CCN(c(ns4)c5c4cccc5)CC3)c(Cl)cc2N1

> <standard_relation>
=

> <Publication_ID>
nan

> <predicted_activity_value>
nan

> <actual_activity_value>
0.7721132953863264

> <Compound>
Ziprasidone

> <standard_units>
uM

> hash
13771276454143521524

$$$$
55
XXILIB    08252103503D 0   0.00000     0.00000

 28 32  0     1  0            999 V2000
    3.6784   -2.7512   -1.2147 Cl  0  0  0  0  0  1           0  0  0
   -2.0515   -5.2606    3.5065 S   0  0  0  0  0  2           0  0  0
    9.0810    2.2991   -0.5530 O   0  0  0  0  0  2           0  0  0
   -1.1930   -3.9318    3.0821 N   0  0  0  0  0  3           0  0  0
   -0.9191   -2.4412    1.2634 N   0  0  2  0  0  3           0  0  0
    7.7813    0.3466   -0.7180 N   0  0  0  0  0  3           0  0  0
    0.0000    0.0000    0.0000 N   0  0  2  0  0  3           0  0  0
    4.4346   -1.1971   -1.1175 C   0  0  0  0  0  4           0  0  0
   -2.9358   -5.3928    2.0500 C   0  0  0  0  0  4           0  0  0
   -1.5137   -3.5296    1.8458 C   0  0  0  0  0  4           0  0  0
    6.4287    0.0673   -0.8779 C   0  0  0  0  0  4           0  0  0
   -2.5414   -4.3547    1.1953 C   0  0  0  0  0  4           0  0  0
    3.6757    0.0000   -1.1983 C   0  0  0  0  0  4           0  0  0
    5.7114    1.2548   -0.9517 C   0  0  0  0  0  4           0  0  0
    5.8257   -1.1697   -0.9566 C   0  0  0  0  0  4           0  0  0
   -3.9045   -6.3504    1.7016 C   0  0  0  0  0  4           0  0  0
   -3.1812   -4.3063   -0.0729 C   0  0  0  0  0  4           0  0  0
    4.3384    1.2402   -1.1082 C   0  0  0  0  0  4           0  0  0
   -4.5029   -6.2661    0.4467 C   0  0  0  0  0  4           0  0  0
   -4.1467   -5.2555   -0.4322 C   0  0  0  0  0  4           0  0  0
    8.0100    1.7267   -0.6815 C   0  0  0  0  0  4           0  0  0
   -0.4466   -1.3290    2.0924 C   0  0  0  0  0  4           0  0  0
   -0.3989   -2.4843   -0.1057 C   0  0  0  0  0  4           0  0  0
   -0.5913    0.0000    1.3456 C   0  0  0  0  0  4           0  0  0
   -0.5491   -1.1173   -0.7803 C   0  0  0  0  0  4           0  0  0
    1.4643   -0.0000   -0.0000 C   0  0  0  0  0  4           0  0  0
    6.6490    2.4143   -0.8363 C   0  0  0  0  0  4           0  0  0
    2.1816    0.0000   -1.3573 C   0  0  0  0  0  4           0  0  0
  1  8  1  0     0  0
  2  4  1  0     0  0
  2  9  1  0     0  0
  3 21  2  0     0  0
  4 10  2  0     0  0
  5 10  1  0     0  0
  5 22  1  0     0  0
  5 23  1  0     0  0
  6 11  1  0     0  0
  6 21  1  0     0  0
  7 24  1  0     0  0
  7 25  1  0     0  0
  7 26  1  0     0  0
  8 13  2  0     0  0
  8 15  1  0     0  0
  9 12  1  0     0  0
  9 16  2  0     0  0
 10 12  1  0     0  0
 11 14  1  0     0  0
 11 15  2  0     0  0
 12 17  2  0     0  0
 13 18  1  0     0  0
 13 28  1  0     0  0
 14 18  2  0     0  0
 14 27  1  0     0  0
 16 19  1  0     0  0
 17 20  1  0     0  0
 19 20  2  0     0  0
 21 27  1  0     0  0
 22 24  1  0     0  0
 23 25  1  0     0  0
 26 28  1  0     0  0
M  END
> <standard_type>
pIC50

> <# Confs.>
25

> <canonical_smiles>
O=C1Cc2cc(CCN3CCN(c(ns4)c5c4cccc5)CC3)c(Cl)cc2N1

> <standard_relation>
=

> <Publication_ID>
nan

> <predicted_activity_value>
nan

> <actual_activity_value>
0.7721132953863264

> <Compound>
Ziprasidone

> <standard_units>
uM

> hash
13771276454143521524

$$$$
55
XXILIB    08252103503D 0   0.00000     0.00000

 28 32  0     1  0            999 V2000
    3.6784    0.3236    2.9900 Cl  0  0  0  0  0  1           0  0  0
   -5.3621   -3.1064    2.1229 S   0  0  0  0  0  2           0  0  0
    9.0810   -1.6284   -1.7146 O   0  0  0  0  0  2           0  0  0
   -3.8873   -2.4010    2.0216 N   0  0  0  0  0  3           0  0  0
   -2.5974   -1.0739    0.5451 N   0  0  2  0  0  3           0  0  0
    7.7813   -0.7951    0.0589 N   0  0  0  0  0  3           0  0  0
    0.0000    0.0000    0.0000 N   0  0  2  0  0  3           0  0  0
    4.4346   -0.3692    1.5954 C   0  0  0  0  0  4           0  0  0
   -5.9408   -2.5625    0.6095 C   0  0  0  0  0  4           0  0  0
   -3.7517   -1.7390    0.8656 C   0  0  0  0  0  4           0  0  0
    6.4287   -0.7940    0.3807 C   0  0  0  0  0  4           0  0  0
   -4.9372   -1.7985   -0.0011 C   0  0  0  0  0  4           0  0  0
    3.6757   -1.0377    0.5991 C   0  0  0  0  0  4           0  0  0
    5.7114   -1.4516   -0.6109 C   0  0  0  0  0  4           0  0  0
    5.8257   -0.2436    1.4913 C   0  0  0  0  0  4           0  0  0
   -7.1933   -2.8021    0.0174 C   0  0  0  0  0  4           0  0  0
   -5.2473   -1.2578   -1.2784 C   0  0  0  0  0  4           0  0  0
    4.3384   -1.5798   -0.5199 C   0  0  0  0  0  4           0  0  0
   -7.4522   -2.2551   -1.2372 C   0  0  0  0  0  4           0  0  0
   -6.4911   -1.4908   -1.8795 C   0  0  0  0  0  4           0  0  0
    8.0100   -1.4535   -1.1546 C   0  0  0  0  0  4           0  0  0
   -2.0732    0.0187    1.3652 C   0  0  0  0  0  4           0  0  0
   -2.0303   -1.1742   -0.8004 C   0  0  0  0  0  4           0  0  0
   -0.5420    0.0000    1.3684 C   0  0  0  0  0  4           0  0  0
   -0.5024   -1.1722   -0.7336 C   0  0  0  0  0  4           0  0  0
    1.4643    0.0000    0.0000 C   0  0  0  0  0  4           0  0  0
    6.6490   -1.9314   -1.6727 C   0  0  0  0  0  4           0  0  0
    2.1816   -1.1755    0.6787 C   0  0  0  0  0  4           0  0  0
  1  8  1  0     0  0
  2  4  1  0     0  0
  2  9  1  0     0  0
  3 21  2  0     0  0
  4 10  2  0     0  0
  5 10  1  0     0  0
  5 22  1  0     0  0
  5 23  1  0     0  0
  6 11  1  0     0  0
  6 21  1  0     0  0
  7 24  1  0     0  0
  7 25  1  0     0  0
  7 26  1  0     0  0
  8 13  2  0     0  0
  8 15  1  0     0  0
  9 12  1  0     0  0
  9 16  2  0     0  0
 10 12  1  0     0  0
 11 14  1  0     0  0
 11 15  2  0     0  0
 12 17  2  0     0  0
 13 18  1  0     0  0
 13 28  1  0     0  0
 14 18  2  0     0  0
 14 27  1  0     0  0
 16 19  1  0     0  0
 17 20  1  0     0  0
 19 20  2  0     0  0
 21 27  1  0     0  0
 22 24  1  0     0  0
 23 25  1  0     0  0
 26 28  1  0     0  0
M  END
> <standard_type>
pIC50

> <# Confs.>
25

> <canonical_smiles>
O=C1Cc2cc(CCN3CCN(c(ns4)c5c4cccc5)CC3)c(Cl)cc2N1

> <standard_relation>
=

> <Publication_ID>
nan

> <predicted_activity_value>
nan

> <actual_activity_value>
0.7721132953863264

> <Compound>
Ziprasidone

> <standard_units>
uM

> hash
13771276454143521524

$$$$
55
XXILIB    08252103503D 0   0.00000     0.00000

 28 32  0     1  0            999 V2000
    3.6749   -0.3523    2.9735 Cl  0  0  0  0  0  1           0  0  0
   -6.1407   -2.3097    0.9717 S   0  0  0  0  0  2           0  0  0
    9.0957    1.7481   -1.6455 O   0  0  0  0  0  2           0  0  0
   -4.9472   -1.3339    0.4184 N   0  0  0  0  0  3           0  0  0
   -2.5974   -1.0739    0.5451 N   0  0  2  0  0  3           0  0  0
    7.7904    0.8691    0.1016 N   0  0  0  0  0  3           0  0  0
    0.0000    0.0000    0.0000 N   0  0  2  0  0  3           0  0  0
    4.4346    0.3692    1.5954 C   0  0  0  0  0  4           0  0  0
   -5.1309   -3.3677    1.8559 C   0  0  0  0  0  4           0  0  0
   -3.7517   -1.7390    0.8656 C   0  0  0  0  0  4           0  0  0
    6.4344    0.8407    0.4076 C   0  0  0  0  0  4           0  0  0
   -3.8046   -2.9383    1.7134 C   0  0  0  0  0  4           0  0  0
    3.6757    1.0377    0.5991 C   0  0  0  0  0  4           0  0  0
    5.7177    1.5028   -0.5813 C   0  0  0  0  0  4           0  0  0
    5.8284    0.2655    1.5040 C   0  0  0  0  0  4           0  0  0
   -5.4983   -4.4918    2.6164 C   0  0  0  0  0  4           0  0  0
   -2.8178   -3.7092    2.3858 C   0  0  0  0  0  4           0  0  0
    4.3425    1.6133   -0.5006 C   0  0  0  0  0  4           0  0  0
   -4.4979   -5.2155    3.2610 C   0  0  0  0  0  4           0  0  0
   -3.1715   -4.8302    3.1478 C   0  0  0  0  0  4           0  0  0
    8.0217    1.5484   -1.0998 C   0  0  0  0  0  4           0  0  0
   -2.0732    0.0187    1.3652 C   0  0  0  0  0  4           0  0  0
   -2.0303   -1.1742   -0.8004 C   0  0  0  0  0  4           0  0  0
   -0.5420    0.0000    1.3684 C   0  0  0  0  0  4           0  0  0
   -0.5024   -1.1722   -0.7336 C   0  0  0  0  0  4           0  0  0
    1.4643   -0.0000   -0.0000 C   0  0  0  0  0  4           0  0  0
    6.6585    2.0093   -1.6278 C   0  0  0  0  0  4           0  0  0
    2.1816    1.1755    0.6787 C   0  0  0  0  0  4           0  0  0
  1  8  1  0     0  0
  2  4  1  0     0  0
  2  9  1  0     0  0
  3 21  2  0     0  0
  4 10  2  0     0  0
  5 10  1  0     0  0
  5 22  1  0     0  0
  5 23  1  0     0  0
  6 11  1  0     0  0
  6 21  1  0     0  0
  7 24  1  0     0  0
  7 25  1  0     0  0
  7 26  1  0     0  0
  8 13  2  0     0  0
  8 15  1  0     0  0
  9 12  1  0     0  0
  9 16  2  0     0  0
 10 12  1  0     0  0
 11 14  1  0     0  0
 11 15  2  0     0  0
 12 17  2  0     0  0
 13 18  1  0     0  0
 13 28  1  0     0  0
 14 18  2  0     0  0
 14 27  1  0     0  0
 16 19  1  0     0  0
 17 20  1  0     0  0
 19 20  2  0     0  0
 21 27  1  0     0  0
 22 24  1  0     0  0
 23 25  1  0     0  0
 26 28  1  0     0  0
M  END
> <standard_type>
pIC50

> <# Confs.>
25

> <canonical_smiles>
O=C1Cc2cc(CCN3CCN(c(ns4)c5c4cccc5)CC3)c(Cl)cc2N1

> <standard_relation>
=

> <Publication_ID>
nan

> <predicted_activity_value>
nan

> <actual_activity_value>
0.7721132953863264

> <Compound>
Ziprasidone

> <standard_units>
uM

> hash
13771276454143521524

$$$$
55
XXILIB    08252103503D 0   0.00000     0.00000

 28 32  0     1  0            999 V2000
    3.6749   -0.3523    2.9735 Cl  0  0  0  0  0  1           0  0  0
   -2.9846   -5.4754    2.1525 S   0  0  0  0  0  2           0  0  0
    9.0957    1.7481   -1.6455 O   0  0  0  0  0  2           0  0  0
   -2.4470   -4.2488    1.2095 N   0  0  0  0  0  3           0  0  0
   -0.9191   -2.4412    1.2634 N   0  0  2  0  0  3           0  0  0
    7.7904    0.8691    0.1016 N   0  0  0  0  0  3           0  0  0
    0.0000    0.0000    0.0000 N   0  0  2  0  0  3           0  0  0
    4.4346    0.3692    1.5954 C   0  0  0  0  0  4           0  0  0
   -1.9871   -5.1361    3.4981 C   0  0  0  0  0  4           0  0  0
   -1.5137   -3.5296    1.8458 C   0  0  0  0  0  4           0  0  0
    6.4344    0.8407    0.4076 C   0  0  0  0  0  4           0  0  0
   -1.2020   -4.0151    3.1975 C   0  0  0  0  0  4           0  0  0
    3.6757    1.0377    0.5991 C   0  0  0  0  0  4           0  0  0
    5.7177    1.5028   -0.5813 C   0  0  0  0  0  4           0  0  0
    5.8284    0.2655    1.5040 C   0  0  0  0  0  4           0  0  0
   -1.9149   -5.8197    4.7248 C   0  0  0  0  0  4           0  0  0
   -0.3018   -3.5871    4.2108 C   0  0  0  0  0  4           0  0  0
    4.3425    1.6133   -0.5006 C   0  0  0  0  0  4           0  0  0
   -1.0208   -5.3626    5.6900 C   0  0  0  0  0  4           0  0  0
   -0.2219   -4.2587    5.4375 C   0  0  0  0  0  4           0  0  0
    8.0217    1.5484   -1.0998 C   0  0  0  0  0  4           0  0  0
   -0.4466   -1.3290    2.0924 C   0  0  0  0  0  4           0  0  0
   -0.3989   -2.4843   -0.1057 C   0  0  0  0  0  4           0  0  0
   -0.5913    0.0000    1.3456 C   0  0  0  0  0  4           0  0  0
   -0.5491   -1.1173   -0.7803 C   0  0  0  0  0  4           0  0  0
    1.4643   -0.0000   -0.0000 C   0  0  0  0  0  4           0  0  0
    6.6585    2.0093   -1.6278 C   0  0  0  0  0  4           0  0  0
    2.1816    1.1755    0.6787 C   0  0  0  0  0  4           0  0  0
  1  8  1  0     0  0
  2  4  1  0     0  0
  2  9  1  0     0  0
  3 21  2  0     0  0
  4 10  2  0     0  0
  5 10  1  0     0  0
  5 22  1  0     0  0
  5 23  1  0     0  0
  6 11  1  0     0  0
  6 21  1  0     0  0
  7 24  1  0     0  0
  7 25  1  0     0  0
  7 26  1  0     0  0
  8 13  2  0     0  0
  8 15  1  0     0  0
  9 12  1  0     0  0
  9 16  2  0     0  0
 10 12  1  0     0  0
 11 14  1  0     0  0
 11 15  2  0     0  0
 12 17  2  0     0  0
 13 18  1  0     0  0
 13 28  1  0     0  0
 14 18  2  0     0  0
 14 27  1  0     0  0
 16 19  1  0     0  0
 17 20  1  0     0  0
 19 20  2  0     0  0
 21 27  1  0     0  0
 22 24  1  0     0  0
 23 25  1  0     0  0
 26 28  1  0     0  0
M  END
> <standard_type>
pIC50

> <# Confs.>
25

> <canonical_smiles>
O=C1Cc2cc(CCN3CCN(c(ns4)c5c4cccc5)CC3)c(Cl)cc2N1

> <standard_relation>
=

> <Publication_ID>
nan

> <predicted_activity_value>
nan

> <actual_activity_value>
0.7721132953863264

> <Compound>
Ziprasidone

> <standard_units>
uM

> hash
13771276454143521524

$$$$
55
XXILIB    08252103503D 0   0.00000     0.00000

 28 32  0     1  0            999 V2000
    3.6749   -0.3523    2.9735 Cl  0  0  0  0  0  1           0  0  0
   -3.1015   -4.8759    3.1535 S   0  0  0  0  0  2           0  0  0
    9.0957    1.7481   -1.6455 O   0  0  0  0  0  2           0  0  0
   -2.6311   -3.4175    2.5751 N   0  0  0  0  0  3           0  0  0
   -0.9191   -2.4412    1.2634 N   0  0  2  0  0  3           0  0  0
    7.7904    0.8691    0.1016 N   0  0  0  0  0  3           0  0  0
    0.0000    0.0000    0.0000 N   0  0  2  0  0  3           0  0  0
    4.4346    0.3692    1.5954 C   0  0  0  0  0  4           0  0  0
   -1.8317   -5.7803    2.4530 C   0  0  0  0  0  4           0  0  0
   -1.5137   -3.5296    1.8458 C   0  0  0  0  0  4           0  0  0
    6.4344    0.8407    0.4076 C   0  0  0  0  0  4           0  0  0
   -1.0043   -4.9040    1.7381 C   0  0  0  0  0  4           0  0  0
    3.6757    1.0377    0.5991 C   0  0  0  0  0  4           0  0  0
    5.7177    1.5028   -0.5813 C   0  0  0  0  0  4           0  0  0
    5.8284    0.2655    1.5040 C   0  0  0  0  0  4           0  0  0
   -1.5962   -7.1639    2.5381 C   0  0  0  0  0  4           0  0  0
    0.1127   -5.4881    1.0814 C   0  0  0  0  0  4           0  0  0
    4.3425    1.6133   -0.5006 C   0  0  0  0  0  4           0  0  0
   -0.4873   -7.6921    1.8814 C   0  0  0  0  0  4           0  0  0
    0.3589   -6.8649    1.1601 C   0  0  0  0  0  4           0  0  0
    8.0217    1.5484   -1.0998 C   0  0  0  0  0  4           0  0  0
   -0.4466   -1.3290    2.0924 C   0  0  0  0  0  4           0  0  0
   -0.3989   -2.4843   -0.1057 C   0  0  0  0  0  4           0  0  0
   -0.5913    0.0000    1.3456 C   0  0  0  0  0  4           0  0  0
   -0.5491   -1.1173   -0.7803 C   0  0  0  0  0  4           0  0  0
    1.4643   -0.0000   -0.0000 C   0  0  0  0  0  4           0  0  0
    6.6585    2.0093   -1.6278 C   0  0  0  0  0  4           0  0  0
    2.1816    1.1755    0.6787 C   0  0  0  0  0  4           0  0  0
  1  8  1  0     0  0
  2  4  1  0     0  0
  2  9  1  0     0  0
  3 21  2  0     0  0
  4 10  2  0     0  0
  5 10  1  0     0  0
  5 22  1  0     0  0
  5 23  1  0     0  0
  6 11  1  0     0  0
  6 21  1  0     0  0
  7 24  1  0     0  0
  7 25  1  0     0  0
  7 26  1  0     0  0
  8 13  2  0     0  0
  8 15  1  0     0  0
  9 12  1  0     0  0
  9 16  2  0     0  0
 10 12  1  0     0  0
 11 14  1  0     0  0
 11 15  2  0     0  0
 12 17  2  0     0  0
 13 18  1  0     0  0
 13 28  1  0     0  0
 14 18  2  0     0  0
 14 27  1  0     0  0
 16 19  1  0     0  0
 17 20  1  0     0  0
 19 20  2  0     0  0
 21 27  1  0     0  0
 22 24  1  0     0  0
 23 25  1  0     0  0
 26 28  1  0     0  0
M  END
> <standard_type>
pIC50

> <# Confs.>
25

> <canonical_smiles>
O=C1Cc2cc(CCN3CCN(c(ns4)c5c4cccc5)CC3)c(Cl)cc2N1

> <standard_relation>
=

> <Publication_ID>
nan

> <predicted_activity_value>
nan

> <actual_activity_value>
0.7721132953863264

> <Compound>
Ziprasidone

> <standard_units>
uM

> hash
13771276454143521524

$$$$
55
XXILIB    08252103503D 0   0.00000     0.00000

 28 32  0     1  0            999 V2000
    3.9216    2.2055   -1.7175 Cl  0  0  0  0  0  1           0  0  0
   -5.4110   -3.5450    1.0364 S   0  0  0  0  0  2           0  0  0
   -1.1847    7.5104   -0.7608 O   0  0  0  0  0  2           0  0  0
   -3.9401   -3.0238    0.5387 N   0  0  0  0  0  3           0  0  0
   -2.5974   -1.0739    0.5451 N   0  0  2  0  0  3           0  0  0
    0.6052    6.1568   -1.4630 N   0  0  0  0  0  3           0  0  0
    0.0000    0.0000    0.0000 N   0  0  2  0  0  3           0  0  0
    2.5608    3.0357   -1.0426 C   0  0  0  0  0  4           0  0  0
   -5.9085   -2.0715    1.7450 C   0  0  0  0  0  4           0  0  0
   -3.7517   -1.7390    0.8656 C   0  0  0  0  0  4           0  0  0
    1.1325    4.9309   -1.0732 C   0  0  0  0  0  4           0  0  0
   -4.8813   -1.1321    1.5837 C   0  0  0  0  0  4           0  0  0
    1.8252    2.4888    0.0416 C   0  0  0  0  0  4           0  0  0
    0.3958    4.4211   -0.0113 C   0  0  0  0  0  4           0  0  0
    2.2153    4.2684   -1.6107 C   0  0  0  0  0  4           0  0  0
   -7.1222   -1.7812    2.3927 C   0  0  0  0  0  4           0  0  0
   -5.1222    0.1621    2.1196 C   0  0  0  0  0  4           0  0  0
    0.7287    3.2069    0.5586 C   0  0  0  0  0  4           0  0  0
   -7.3162   -0.4983    2.8995 C   0  0  0  0  0  4           0  0  0
   -6.3280    0.4641    2.7656 C   0  0  0  0  0  4           0  0  0
   -0.4992    6.5033   -0.6765 C   0  0  0  0  0  4           0  0  0
   -2.0732    0.0187    1.3652 C   0  0  0  0  0  4           0  0  0
   -2.0303   -1.1742   -0.8004 C   0  0  0  0  0  4           0  0  0
   -0.5420    0.0000    1.3684 C   0  0  0  0  0  4           0  0  0
   -0.5024   -1.1722   -0.7336 C   0  0  0  0  0  4           0  0  0
    1.4643    0.0000   -0.0000 C   0  0  0  0  0  4           0  0  0
   -0.7067    5.3704    0.3348 C   0  0  0  0  0  4           0  0  0
    2.1816    1.1755    0.6787 C   0  0  0  0  0  4           0  0  0
  1  8  1  0     0  0
  2  4  1  0     0  0
  2  9  1  0     0  0
  3 21  2  0     0  0
  4 10  2  0     0  0
  5 10  1  0     0  0
  5 22  1  0     0  0
  5 23  1  0     0  0
  6 11  1  0     0  0
  6 21  1  0     0  0
  7 24  1  0     0  0
  7 25  1  0     0  0
  7 26  1  0     0  0
  8 13  2  0     0  0
  8 15  1  0     0  0
  9 12  1  0     0  0
  9 16  2  0     0  0
 10 12  1  0     0  0
 11 14  1  0     0  0
 11 15  2  0     0  0
 12 17  2  0     0  0
 13 18  1  0     0  0
 13 28  1  0     0  0
 14 18  2  0     0  0
 14 27  1  0     0  0
 16 19  1  0     0  0
 17 20  1  0     0  0
 19 20  2  0     0  0
 21 27  1  0     0  0
 22 24  1  0     0  0
 23 25  1  0     0  0
 26 28  1  0     0  0
M  END
> <standard_type>
pIC50

> <# Confs.>
25

> <canonical_smiles>
O=C1Cc2cc(CCN3CCN(c(ns4)c5c4cccc5)CC3)c(Cl)cc2N1

> <standard_relation>
=

> <Publication_ID>
nan

> <predicted_activity_value>
nan

> <actual_activity_value>
0.7721132953863264

> <Compound>
Ziprasidone

> <standard_units>
uM

> hash
13771276454143521524

$$$$
37
XXILIB    08252103503D 0   0.00000     0.00000

 22 25  0     1  0            999 V2000
   -2.1383    0.5888   -3.3251 S   0  0  0  0  0  2           0  0  0
   -2.7722    1.0829   -0.8079 N   0  0  0  0  0  3           0  0  0
   -0.6697   -0.0000    1.1139 N   0  0  0  0  0  3           0  0  0
    1.3770   -0.0000    0.0000 N   0  0  2  0  0  3           0  0  0
    3.2960    1.5037    1.4813 N   0  0  1  0  0  3           0  0  0
   -1.8315    0.5724   -1.6332 C   0  0  0  0  0  4           0  0  0
   -0.7580   -0.3444   -3.6632 C   0  0  0  0  0  4           0  0  0
   -3.0140    0.6445    0.5077 C   0  0  0  0  0  4           0  0  0
   -2.0503    0.0476    1.3353 C   0  0  0  0  0  4           0  0  0
   -0.6075    0.0024   -1.3328 C   0  0  0  0  0  4           0  0  0
   -0.0390   -0.5961   -2.5173 C   0  0  0  0  0  4           0  0  0
   -4.3427    0.7517    0.9806 C   0  0  0  0  0  4           0  0  0
   -2.4547   -0.4366    2.5968 C   0  0  0  0  0  4           0  0  0
   -4.7197    0.2681    2.2314 C   0  0  0  0  0  4           0  0  0
   -3.7722   -0.3365    3.0403 C   0  0  0  0  0  4           0  0  0
   -0.0000    0.0000    0.0000 C   0  0  0  0  0  4           0  0  0
    2.1151   -0.6324    1.0954 C   0  0  0  0  0  4           0  0  0
    2.1155    1.0854   -0.6493 C   0  0  0  0  0  4           0  0  0
    2.5231    0.4272    2.1220 C   0  0  0  0  0  4           0  0  0
    2.5255    2.1279    0.3938 C   0  0  0  0  0  4           0  0  0
    3.6970    2.5054    2.4679 C   0  0  0  0  0  4           0  0  0
   -0.4576   -0.7657   -5.0586 C   0  0  0  0  0  4           0  0  0
  1  6  1  0     0  0
  1  7  1  0     0  0
  2  6  1  0     0  0
  2  8  1  0     0  0
  3  9  1  0     0  0
  3 16  2  0     0  0
  4 16  1  0     0  0
  4 17  1  0     0  0
  4 18  1  0     0  0
  5 19  1  0     0  0
  5 20  1  0     0  0
  5 21  1  0     0  0
  6 10  2  0     0  0
  7 11  2  0     0  0
  7 22  1  0     0  0
  8  9  1  0     0  0
  8 12  2  0     0  0
  9 13  2  0     0  0
 10 11  1  0     0  0
 10 16  1  0     0  0
 12 14  1  0     0  0
 13 15  1  0     0  0
 14 15  2  0     0  0
 17 19  1  0     0  0
 18 20  1  0     0  0
M  END
> <standard_type>
pIC50

> <# Confs.>
11

> <canonical_smiles>
CN1CCN(CC1)C2=NC3=CC=CC=C3NC4=C2C=C(S4)C

> <standard_relation>
=

> <Publication_ID>
nan

> <predicted_activity_value>
nan

> <actual_activity_value>
-0.7788744720027395

> <Compound>
Olanzapine

> <standard_units>
uM

> hash
9921540949878713077

$$$$
37
XXILIB    08252103503D 0   0.00000     0.00000

 22 25  0     1  0            999 V2000
   -2.1384   -0.5990   -3.3234 S   0  0  0  0  0  2           0  0  0
   -2.7720   -1.0857   -0.8040 N   0  0  0  0  0  3           0  0  0
   -0.6688    0.0000    1.1146 N   0  0  0  0  0  3           0  0  0
    1.3882    0.0000    0.0000 N   0  0  2  0  0  3           0  0  0
    4.1912    0.5529   -0.2453 N   0  0  1  0  0  3           0  0  0
   -1.8321   -0.5769   -1.6311 C   0  0  0  0  0  4           0  0  0
   -0.7592    0.3349   -3.6632 C   0  0  0  0  0  4           0  0  0
   -3.0143   -0.6403    0.5093 C   0  0  0  0  0  4           0  0  0
   -2.0494   -0.0441    1.3361 C   0  0  0  0  0  4           0  0  0
   -0.6088   -0.0044   -1.3320 C   0  0  0  0  0  4           0  0  0
   -0.0432    0.5943   -2.5174 C   0  0  0  0  0  4           0  0  0
   -4.3447   -0.7374    0.9789 C   0  0  0  0  0  4           0  0  0
   -2.4533    0.4461    2.5955 C   0  0  0  0  0  4           0  0  0
   -4.7215   -0.2447    2.2264 C   0  0  0  0  0  4           0  0  0
   -3.7727    0.3569    3.0355 C   0  0  0  0  0  4           0  0  0
    0.0000    0.0000    0.0000 C   0  0  0  0  0  4           0  0  0
    2.1261    0.6355    1.1008 C   0  0  0  0  0  4           0  0  0
    2.2317   -0.8113   -0.8882 C   0  0  0  0  0  4           0  0  0
    3.3252    1.4178    0.5652 C   0  0  0  0  0  4           0  0  0
    3.4341    0.0010   -1.3758 C   0  0  0  0  0  4           0  0  0
    5.3591    1.2934   -0.7206 C   0  0  0  0  0  4           0  0  0
   -0.4565    0.7523   -5.0593 C   0  0  0  0  0  4           0  0  0
  1  6  1  0     0  0
  1  7  1  0     0  0
  2  6  1  0     0  0
  2  8  1  0     0  0
  3  9  1  0     0  0
  3 16  2  0     0  0
  4 16  1  0     0  0
  4 17  1  0     0  0
  4 18  1  0     0  0
  5 19  1  0     0  0
  5 20  1  0     0  0
  5 21  1  0     0  0
  6 10  2  0     0  0
  7 11  2  0     0  0
  7 22  1  0     0  0
  8  9  1  0     0  0
  8 12  2  0     0  0
  9 13  2  0     0  0
 10 11  1  0     0  0
 10 16  1  0     0  0
 12 14  1  0     0  0
 13 15  1  0     0  0
 14 15  2  0     0  0
 17 19  1  0     0  0
 18 20  1  0     0  0
M  END
> <standard_type>
pIC50

> <# Confs.>
11

> <canonical_smiles>
CN1CCN(CC1)C2=NC3=CC=CC=C3NC4=C2C=C(S4)C

> <standard_relation>
=

> <Publication_ID>
nan

> <predicted_activity_value>
nan

> <actual_activity_value>
-0.7788744720027395

> <Compound>
Olanzapine

> <standard_units>
uM

> hash
9921540949878713077

$$$$
37
XXILIB    08252103503D 0   0.00000     0.00000

 22 25  0     1  0            999 V2000
   -2.1384   -0.5990   -3.3234 S   0  0  0  0  0  2           0  0  0
   -2.7720   -1.0857   -0.8040 N   0  0  0  0  0  3           0  0  0
   -0.6688    0.0000    1.1146 N   0  0  0  0  0  3           0  0  0
    1.3770   -0.0000   -0.0000 N   0  0  2  0  0  3           0  0  0
    3.2960   -0.5311    2.0429 N   0  0  1  0  0  3           0  0  0
   -1.8321   -0.5769   -1.6311 C   0  0  0  0  0  4           0  0  0
   -0.7592    0.3349   -3.6632 C   0  0  0  0  0  4           0  0  0
   -3.0143   -0.6403    0.5093 C   0  0  0  0  0  4           0  0  0
   -2.0494   -0.0441    1.3361 C   0  0  0  0  0  4           0  0  0
   -0.6088   -0.0044   -1.3320 C   0  0  0  0  0  4           0  0  0
   -0.0432    0.5943   -2.5174 C   0  0  0  0  0  4           0  0  0
   -4.3447   -0.7374    0.9789 C   0  0  0  0  0  4           0  0  0
   -2.4533    0.4461    2.5955 C   0  0  0  0  0  4           0  0  0
   -4.7215   -0.2447    2.2264 C   0  0  0  0  0  4           0  0  0
   -3.7727    0.3569    3.0355 C   0  0  0  0  0  4           0  0  0
    0.0000    0.0000    0.0000 C   0  0  0  0  0  4           0  0  0
    2.1151   -1.2648    0.0000 C   0  0  0  0  0  4           0  0  0
    2.1155    1.1050    0.6154 C   0  0  0  0  0  4           0  0  0
    2.5231   -1.6241    1.4309 C   0  0  0  0  0  4           0  0  0
    2.5255    0.7229    2.0397 C   0  0  0  0  0  4           0  0  0
    3.6970   -0.8846    3.4037 C   0  0  0  0  0  4           0  0  0
   -0.4565    0.7523   -5.0593 C   0  0  0  0  0  4           0  0  0
  1  6  1  0     0  0
  1  7  1  0     0  0
  2  6  1  0     0  0
  2  8  1  0     0  0
  3  9  1  0     0  0
  3 16  2  0     0  0
  4 16  1  0     0  0
  4 17  1  0     0  0
  4 18  1  0     0  0
  5 19  1  0     0  0
  5 20  1  0     0  0
  5 21  1  0     0  0
  6 10  2  0     0  0
  7 11  2  0     0  0
  7 22  1  0     0  0
  8  9  1  0     0  0
  8 12  2  0     0  0
  9 13  2  0     0  0
 10 11  1  0     0  0
 10 16  1  0     0  0
 12 14  1  0     0  0
 13 15  1  0     0  0
 14 15  2  0     0  0
 17 19  1  0     0  0
 18 20  1  0     0  0
M  END
> <standard_type>
pIC50

> <# Confs.>
11

> <canonical_smiles>
CN1CCN(CC1)C2=NC3=CC=CC=C3NC4=C2C=C(S4)C

> <standard_relation>
=

> <Publication_ID>
nan

> <predicted_activity_value>
nan

> <actual_activity_value>
-0.7788744720027395

> <Compound>
Olanzapine

> <standard_units>
uM

> hash
9921540949878713077

$$$$
37
XXILIB    08252103503D 0   0.00000     0.00000

 22 25  0     1  0            999 V2000
   -2.1384   -0.5990   -3.3234 S   0  0  0  0  0  2           0  0  0
   -2.7720   -1.0857   -0.8040 N   0  0  0  0  0  3           0  0  0
   -0.6688    0.0000    1.1146 N   0  0  0  0  0  3           0  0  0
    1.3868    0.0000   -0.0000 N   0  0  2  0  0  3           0  0  0
    4.1279   -0.6023    0.5595 N   0  0  1  0  0  3           0  0  0
   -1.8321   -0.5769   -1.6311 C   0  0  0  0  0  4           0  0  0
   -0.7592    0.3349   -3.6632 C   0  0  0  0  0  4           0  0  0
   -3.0143   -0.6403    0.5093 C   0  0  0  0  0  4           0  0  0
   -2.0494   -0.0441    1.3361 C   0  0  0  0  0  4           0  0  0
   -0.6088   -0.0044   -1.3320 C   0  0  0  0  0  4           0  0  0
   -0.0432    0.5943   -2.5174 C   0  0  0  0  0  4           0  0  0
   -4.3447   -0.7374    0.9789 C   0  0  0  0  0  4           0  0  0
   -2.4533    0.4461    2.5955 C   0  0  0  0  0  4           0  0  0
   -4.7215   -0.2447    2.2264 C   0  0  0  0  0  4           0  0  0
   -3.7727    0.3569    3.0355 C   0  0  0  0  0  4           0  0  0
    0.0000    0.0000    0.0000 C   0  0  0  0  0  4           0  0  0
    2.2395   -0.5977   -1.0353 C   0  0  0  0  0  4           0  0  0
    2.1346    0.7881    0.9886 C   0  0  0  0  0  4           0  0  0
    3.3549   -1.4201   -0.3850 C   0  0  0  0  0  4           0  0  0
    3.2481   -0.0606    1.6039 C   0  0  0  0  0  4           0  0  0
    5.2102   -1.3860    1.1530 C   0  0  0  0  0  4           0  0  0
   -0.4565    0.7523   -5.0593 C   0  0  0  0  0  4           0  0  0
  1  6  1  0     0  0
  1  7  1  0     0  0
  2  6  1  0     0  0
  2  8  1  0     0  0
  3  9  1  0     0  0
  3 16  2  0     0  0
  4 16  1  0     0  0
  4 17  1  0     0  0
  4 18  1  0     0  0
  5 19  1  0     0  0
  5 20  1  0     0  0
  5 21  1  0     0  0
  6 10  2  0     0  0
  7 11  2  0     0  0
  7 22  1  0     0  0
  8  9  1  0     0  0
  8 12  2  0     0  0
  9 13  2  0     0  0
 10 11  1  0     0  0
 10 16  1  0     0  0
 12 14  1  0     0  0
 13 15  1  0     0  0
 14 15  2  0     0  0
 17 19  1  0     0  0
 18 20  1  0     0  0
M  END
> <standard_type>
pIC50

> <# Confs.>
11

> <canonical_smiles>
CN1CCN(CC1)C2=NC3=CC=CC=C3NC4=C2C=C(S4)C

> <standard_relation>
=

> <Publication_ID>
nan

> <predicted_activity_value>
nan

> <actual_activity_value>
-0.7788744720027395

> <Compound>
Olanzapine

> <standard_units>
uM

> hash
9921540949878713077

$$$$
37
XXILIB    08252103503D 0   0.00000     0.00000

 22 25  0     1  0            999 V2000
   -2.1383    0.5888   -3.3251 S   0  0  0  0  0  2           0  0  0
   -2.7722    1.0829   -0.8079 N   0  0  0  0  0  3           0  0  0
   -0.6697   -0.0000    1.1139 N   0  0  0  0  0  3           0  0  0
    1.3882    0.0000    0.0000 N   0  0  2  0  0  3           0  0  0
    4.1912    0.2453    0.5529 N   0  0  1  0  0  3           0  0  0
   -1.8315    0.5724   -1.6332 C   0  0  0  0  0  4           0  0  0
   -0.7580   -0.3444   -3.6632 C   0  0  0  0  0  4           0  0  0
   -3.0140    0.6445    0.5077 C   0  0  0  0  0  4           0  0  0
   -2.0503    0.0476    1.3353 C   0  0  0  0  0  4           0  0  0
   -0.6075    0.0024   -1.3328 C   0  0  0  0  0  4           0  0  0
   -0.0390   -0.5961   -2.5173 C   0  0  0  0  0  4           0  0  0
   -4.3427    0.7517    0.9806 C   0  0  0  0  0  4           0  0  0
   -2.4547   -0.4366    2.5968 C   0  0  0  0  0  4           0  0  0
   -4.7197    0.2681    2.2314 C   0  0  0  0  0  4           0  0  0
   -3.7722   -0.3365    3.0403 C   0  0  0  0  0  4           0  0  0
   -0.0000    0.0000    0.0000 C   0  0  0  0  0  4           0  0  0
    2.1261   -1.1008    0.6355 C   0  0  0  0  0  4           0  0  0
    2.2317    0.8882   -0.8113 C   0  0  0  0  0  4           0  0  0
    3.3252   -0.5652    1.4178 C   0  0  0  0  0  4           0  0  0
    3.4341    1.3758    0.0010 C   0  0  0  0  0  4           0  0  0
    5.3591    0.7206    1.2934 C   0  0  0  0  0  4           0  0  0
   -0.4576   -0.7657   -5.0586 C   0  0  0  0  0  4           0  0  0
  1  6  1  0     0  0
  1  7  1  0     0  0
  2  6  1  0     0  0
  2  8  1  0     0  0
  3  9  1  0     0  0
  3 16  2  0     0  0
  4 16  1  0     0  0
  4 17  1  0     0  0
  4 18  1  0     0  0
  5 19  1  0     0  0
  5 20  1  0     0  0
  5 21  1  0     0  0
  6 10  2  0     0  0
  7 11  2  0     0  0
  7 22  1  0     0  0
  8  9  1  0     0  0
  8 12  2  0     0  0
  9 13  2  0     0  0
 10 11  1  0     0  0
 10 16  1  0     0  0
 12 14  1  0     0  0
 13 15  1  0     0  0
 14 15  2  0     0  0
 17 19  1  0     0  0
 18 20  1  0     0  0
M  END
> <standard_type>
pIC50

> <# Confs.>
11

> <canonical_smiles>
CN1CCN(CC1)C2=NC3=CC=CC=C3NC4=C2C=C(S4)C

> <standard_relation>
=

> <Publication_ID>
nan

> <predicted_activity_value>
nan

> <actual_activity_value>
-0.7788744720027395

> <Compound>
Olanzapine

> <standard_units>
uM

> hash
9921540949878713077

$$$$
37
XXILIB    08252103503D 0   0.00000     0.00000

 22 25  0     1  0            999 V2000
   -2.1383    0.5888   -3.3251 S   0  0  0  0  0  2           0  0  0
   -2.7722    1.0829   -0.8079 N   0  0  0  0  0  3           0  0  0
   -0.6697   -0.0000    1.1139 N   0  0  0  0  0  3           0  0  0
    1.3770   -0.0000   -0.0000 N   0  0  2  0  0  3           0  0  0
    3.2960   -0.5311    2.0429 N   0  0  1  0  0  3           0  0  0
   -1.8315    0.5724   -1.6332 C   0  0  0  0  0  4           0  0  0
   -0.7580   -0.3444   -3.6632 C   0  0  0  0  0  4           0  0  0
   -3.0140    0.6445    0.5077 C   0  0  0  0  0  4           0  0  0
   -2.0503    0.0476    1.3353 C   0  0  0  0  0  4           0  0  0
   -0.6075    0.0024   -1.3328 C   0  0  0  0  0  4           0  0  0
   -0.0390   -0.5961   -2.5173 C   0  0  0  0  0  4           0  0  0
   -4.3427    0.7517    0.9806 C   0  0  0  0  0  4           0  0  0
   -2.4547   -0.4366    2.5968 C   0  0  0  0  0  4           0  0  0
   -4.7197    0.2681    2.2314 C   0  0  0  0  0  4           0  0  0
   -3.7722   -0.3365    3.0403 C   0  0  0  0  0  4           0  0  0
   -0.0000    0.0000    0.0000 C   0  0  0  0  0  4           0  0  0
    2.1151   -1.2648    0.0000 C   0  0  0  0  0  4           0  0  0
    2.1155    1.1050    0.6154 C   0  0  0  0  0  4           0  0  0
    2.5231   -1.6241    1.4309 C   0  0  0  0  0  4           0  0  0
    2.5255    0.7229    2.0397 C   0  0  0  0  0  4           0  0  0
    3.6970   -0.8846    3.4037 C   0  0  0  0  0  4           0  0  0
   -0.4576   -0.7657   -5.0586 C   0  0  0  0  0  4           0  0  0
  1  6  1  0     0  0
  1  7  1  0     0  0
  2  6  1  0     0  0
  2  8  1  0     0  0
  3  9  1  0     0  0
  3 16  2  0     0  0
  4 16  1  0     0  0
  4 17  1  0     0  0
  4 18  1  0     0  0
  5 19  1  0     0  0
  5 20  1  0     0  0
  5 21  1  0     0  0
  6 10  2  0     0  0
  7 11  2  0     0  0
  7 22  1  0     0  0
  8  9  1  0     0  0
  8 12  2  0     0  0
  9 13  2  0     0  0
 10 11  1  0     0  0
 10 16  1  0     0  0
 12 14  1  0     0  0
 13 15  1  0     0  0
 14 15  2  0     0  0
 17 19  1  0     0  0
 18 20  1  0     0  0
M  END
> <standard_type>
pIC50

> <# Confs.>
11

> <canonical_smiles>
CN1CCN(CC1)C2=NC3=CC=CC=C3NC4=C2C=C(S4)C

> <standard_relation>
=

> <Publication_ID>
nan

> <predicted_activity_value>
nan

> <actual_activity_value>
-0.7788744720027395

> <Compound>
Olanzapine

> <standard_units>
uM

> hash
9921540949878713077

$$$$
37
XXILIB    08252103503D 0   0.00000     0.00000

 22 25  0     1  0            999 V2000
   -2.1383    0.5888   -3.3251 S   0  0  0  0  0  2           0  0  0
   -2.7722    1.0829   -0.8079 N   0  0  0  0  0  3           0  0  0
   -0.6697   -0.0000    1.1139 N   0  0  0  0  0  3           0  0  0
    1.3868    0.0000    0.0000 N   0  0  2  0  0  3           0  0  0
    4.1279   -0.7857   -0.2419 N   0  0  1  0  0  3           0  0  0
   -1.8315    0.5724   -1.6332 C   0  0  0  0  0  4           0  0  0
   -0.7580   -0.3444   -3.6632 C   0  0  0  0  0  4           0  0  0
   -3.0140    0.6445    0.5077 C   0  0  0  0  0  4           0  0  0
   -2.0503    0.0476    1.3353 C   0  0  0  0  0  4           0  0  0
   -0.6075    0.0024   -1.3328 C   0  0  0  0  0  4           0  0  0
   -0.0390   -0.5961   -2.5173 C   0  0  0  0  0  4           0  0  0
   -4.3427    0.7517    0.9806 C   0  0  0  0  0  4           0  0  0
   -2.4547   -0.4366    2.5968 C   0  0  0  0  0  4           0  0  0
   -4.7197    0.2681    2.2314 C   0  0  0  0  0  4           0  0  0
   -3.7722   -0.3365    3.0403 C   0  0  0  0  0  4           0  0  0
   -0.0000    0.0000    0.0000 C   0  0  0  0  0  4           0  0  0
    2.2395    0.5977   -1.0353 C   0  0  0  0  0  4           0  0  0
    2.1346   -0.4621    1.1768 C   0  0  0  0  0  4           0  0  0
    3.3549   -0.3766   -1.4223 C   0  0  0  0  0  4           0  0  0
    3.2481   -1.4193    0.7495 C   0  0  0  0  0  4           0  0  0
    5.2102   -1.6915   -0.6238 C   0  0  0  0  0  4           0  0  0
   -0.4576   -0.7657   -5.0586 C   0  0  0  0  0  4           0  0  0
  1  6  1  0     0  0
  1  7  1  0     0  0
  2  6  1  0     0  0
  2  8  1  0     0  0
  3  9  1  0     0  0
  3 16  2  0     0  0
  4 16  1  0     0  0
  4 17  1  0     0  0
  4 18  1  0     0  0
  5 19  1  0     0  0
  5 20  1  0     0  0
  5 21  1  0     0  0
  6 10  2  0     0  0
  7 11  2  0     0  0
  7 22  1  0     0  0
  8  9  1  0     0  0
  8 12  2  0     0  0
  9 13  2  0     0  0
 10 11  1  0     0  0
 10 16  1  0     0  0
 12 14  1  0     0  0
 13 15  1  0     0  0
 14 15  2  0     0  0
 17 19  1  0     0  0
 18 20  1  0     0  0
M  END
> <standard_type>
pIC50

> <# Confs.>
11

> <canonical_smiles>
CN1CCN(CC1)C2=NC3=CC=CC=C3NC4=C2C=C(S4)C

> <standard_relation>
=

> <Publication_ID>
nan

> <predicted_activity_value>
nan

> <actual_activity_value>
-0.7788744720027395

> <Compound>
Olanzapine

> <standard_units>
uM

> hash
9921540949878713077

$$$$
37
XXILIB    08252103503D 0   0.00000     0.00000

 22 25  0     1  0            999 V2000
   -2.1383    0.5888   -3.3251 S   0  0  0  0  0  2           0  0  0
   -2.7722    1.0829   -0.8079 N   0  0  0  0  0  3           0  0  0
   -0.6697   -0.0000    1.1139 N   0  0  0  0  0  3           0  0  0
    1.3882    0.0000    0.0000 N   0  0  2  0  0  3           0  0  0
    4.1912    0.0640   -0.6015 N   0  0  1  0  0  3           0  0  0
   -1.8315    0.5724   -1.6332 C   0  0  0  0  0  4           0  0  0
   -0.7580   -0.3444   -3.6632 C   0  0  0  0  0  4           0  0  0
   -3.0140    0.6445    0.5077 C   0  0  0  0  0  4           0  0  0
   -2.0503    0.0476    1.3353 C   0  0  0  0  0  4           0  0  0
   -0.6075    0.0024   -1.3328 C   0  0  0  0  0  4           0  0  0
   -0.0390   -0.5961   -2.5173 C   0  0  0  0  0  4           0  0  0
   -4.3427    0.7517    0.9806 C   0  0  0  0  0  4           0  0  0
   -2.4547   -0.4366    2.5968 C   0  0  0  0  0  4           0  0  0
   -4.7197    0.2681    2.2314 C   0  0  0  0  0  4           0  0  0
   -3.7722   -0.3365    3.0403 C   0  0  0  0  0  4           0  0  0
   -0.0000    0.0000    0.0000 C   0  0  0  0  0  4           0  0  0
    2.1261    1.2711   -0.0000 C   0  0  0  0  0  4           0  0  0
    2.2317   -1.1749    0.2585 C   0  0  0  0  0  4           0  0  0
    3.3252    1.1984   -0.9452 C   0  0  0  0  0  4           0  0  0
    3.4341   -1.1910   -0.6888 C   0  0  0  0  0  4           0  0  0
    5.3591    0.0226   -1.4804 C   0  0  0  0  0  4           0  0  0
   -0.4576   -0.7657   -5.0586 C   0  0  0  0  0  4           0  0  0
  1  6  1  0     0  0
  1  7  1  0     0  0
  2  6  1  0     0  0
  2  8  1  0     0  0
  3  9  1  0     0  0
  3 16  2  0     0  0
  4 16  1  0     0  0
  4 17  1  0     0  0
  4 18  1  0     0  0
  5 19  1  0     0  0
  5 20  1  0     0  0
  5 21  1  0     0  0
  6 10  2  0     0  0
  7 11  2  0     0  0
  7 22  1  0     0  0
  8  9  1  0     0  0
  8 12  2  0     0  0
  9 13  2  0     0  0
 10 11  1  0     0  0
 10 16  1  0     0  0
 12 14  1  0     0  0
 13 15  1  0     0  0
 14 15  2  0     0  0
 17 19  1  0     0  0
 18 20  1  0     0  0
M  END
> <standard_type>
pIC50

> <# Confs.>
11

> <canonical_smiles>
CN1CCN(CC1)C2=NC3=CC=CC=C3NC4=C2C=C(S4)C

> <standard_relation>
=

> <Publication_ID>
nan

> <predicted_activity_value>
nan

> <actual_activity_value>
-0.7788744720027395

> <Compound>
Olanzapine

> <standard_units>
uM

> hash
9921540949878713077

$$$$
37
XXILIB    08252103503D 0   0.00000     0.00000

 22 25  0     1  0            999 V2000
   -2.1384   -0.5990   -3.3234 S   0  0  0  0  0  2           0  0  0
   -2.7720   -1.0857   -0.8040 N   0  0  0  0  0  3           0  0  0
   -0.6688    0.0000    1.1146 N   0  0  0  0  0  3           0  0  0
    1.3882    0.0000    0.0000 N   0  0  2  0  0  3           0  0  0
    4.1912    0.0640   -0.6015 N   0  0  1  0  0  3           0  0  0
   -1.8321   -0.5769   -1.6311 C   0  0  0  0  0  4           0  0  0
   -0.7592    0.3349   -3.6632 C   0  0  0  0  0  4           0  0  0
   -3.0143   -0.6403    0.5093 C   0  0  0  0  0  4           0  0  0
   -2.0494   -0.0441    1.3361 C   0  0  0  0  0  4           0  0  0
   -0.6088   -0.0044   -1.3320 C   0  0  0  0  0  4           0  0  0
   -0.0432    0.5943   -2.5174 C   0  0  0  0  0  4           0  0  0
   -4.3447   -0.7374    0.9789 C   0  0  0  0  0  4           0  0  0
   -2.4533    0.4461    2.5955 C   0  0  0  0  0  4           0  0  0
   -4.7215   -0.2447    2.2264 C   0  0  0  0  0  4           0  0  0
   -3.7727    0.3569    3.0355 C   0  0  0  0  0  4           0  0  0
    0.0000    0.0000    0.0000 C   0  0  0  0  0  4           0  0  0
    2.1261    1.2711   -0.0000 C   0  0  0  0  0  4           0  0  0
    2.2317   -1.1749    0.2585 C   0  0  0  0  0  4           0  0  0
    3.3252    1.1984   -0.9452 C   0  0  0  0  0  4           0  0  0
    3.4341   -1.1910   -0.6888 C   0  0  0  0  0  4           0  0  0
    5.3591    0.0226   -1.4804 C   0  0  0  0  0  4           0  0  0
   -0.4565    0.7523   -5.0593 C   0  0  0  0  0  4           0  0  0
  1  6  1  0     0  0
  1  7  1  0     0  0
  2  6  1  0     0  0
  2  8  1  0     0  0
  3  9  1  0     0  0
  3 16  2  0     0  0
  4 16  1  0     0  0
  4 17  1  0     0  0
  4 18  1  0     0  0
  5 19  1  0     0  0
  5 20  1  0     0  0
  5 21  1  0     0  0
  6 10  2  0     0  0
  7 11  2  0     0  0
  7 22  1  0     0  0
  8  9  1  0     0  0
  8 12  2  0     0  0
  9 13  2  0     0  0
 10 11  1  0     0  0
 10 16  1  0     0  0
 12 14  1  0     0  0
 13 15  1  0     0  0
 14 15  2  0     0  0
 17 19  1  0     0  0
 18 20  1  0     0  0
M  END
> <standard_type>
pIC50

> <# Confs.>
11

> <canonical_smiles>
CN1CCN(CC1)C2=NC3=CC=CC=C3NC4=C2C=C(S4)C

> <standard_relation>
=

> <Publication_ID>
nan

> <predicted_activity_value>
nan

> <actual_activity_value>
-0.7788744720027395

> <Compound>
Olanzapine

> <standard_units>
uM

> hash
9921540949878713077

$$$$
37
XXILIB    08252103503D 0   0.00000     0.00000

 22 25  0     1  0            999 V2000
   -2.1384   -0.5990   -3.3234 S   0  0  0  0  0  2           0  0  0
   -2.7720   -1.0857   -0.8040 N   0  0  0  0  0  3           0  0  0
   -0.6688    0.0000    1.1146 N   0  0  0  0  0  3           0  0  0
    1.3882    0.0000    0.0000 N   0  0  2  0  0  3           0  0  0
    4.1912   -0.0640    0.6015 N   0  0  1  0  0  3           0  0  0
   -1.8321   -0.5769   -1.6311 C   0  0  0  0  0  4           0  0  0
   -0.7592    0.3349   -3.6632 C   0  0  0  0  0  4           0  0  0
   -3.0143   -0.6403    0.5093 C   0  0  0  0  0  4           0  0  0
   -2.0494   -0.0441    1.3361 C   0  0  0  0  0  4           0  0  0
   -0.6088   -0.0044   -1.3320 C   0  0  0  0  0  4           0  0  0
   -0.0432    0.5943   -2.5174 C   0  0  0  0  0  4           0  0  0
   -4.3447   -0.7374    0.9789 C   0  0  0  0  0  4           0  0  0
   -2.4533    0.4461    2.5955 C   0  0  0  0  0  4           0  0  0
   -4.7215   -0.2447    2.2264 C   0  0  0  0  0  4           0  0  0
   -3.7727    0.3569    3.0355 C   0  0  0  0  0  4           0  0  0
    0.0000    0.0000    0.0000 C   0  0  0  0  0  4           0  0  0
    2.1261   -1.2711    0.0000 C   0  0  0  0  0  4           0  0  0
    2.2317    1.1749   -0.2585 C   0  0  0  0  0  4           0  0  0
    3.3252   -1.1984    0.9452 C   0  0  0  0  0  4           0  0  0
    3.4341    1.1910    0.6888 C   0  0  0  0  0  4           0  0  0
    5.3591   -0.0226    1.4804 C   0  0  0  0  0  4           0  0  0
   -0.4565    0.7523   -5.0593 C   0  0  0  0  0  4           0  0  0
  1  6  1  0     0  0
  1  7  1  0     0  0
  2  6  1  0     0  0
  2  8  1  0     0  0
  3  9  1  0     0  0
  3 16  2  0     0  0
  4 16  1  0     0  0
  4 17  1  0     0  0
  4 18  1  0     0  0
  5 19  1  0     0  0
  5 20  1  0     0  0
  5 21  1  0     0  0
  6 10  2  0     0  0
  7 11  2  0     0  0
  7 22  1  0     0  0
  8  9  1  0     0  0
  8 12  2  0     0  0
  9 13  2  0     0  0
 10 11  1  0     0  0
 10 16  1  0     0  0
 12 14  1  0     0  0
 13 15  1  0     0  0
 14 15  2  0     0  0
 17 19  1  0     0  0
 18 20  1  0     0  0
M  END
> <standard_type>
pIC50

> <# Confs.>
11

> <canonical_smiles>
CN1CCN(CC1)C2=NC3=CC=CC=C3NC4=C2C=C(S4)C

> <standard_relation>
=

> <Publication_ID>
nan

> <predicted_activity_value>
nan

> <actual_activity_value>
-0.7788744720027395

> <Compound>
Olanzapine

> <standard_units>
uM

> hash
9921540949878713077

$$$$
37
XXILIB    08252103503D 0   0.00000     0.00000

 22 25  0     1  0            999 V2000
   -2.1383    0.5888   -3.3251 S   0  0  0  0  0  2           0  0  0
   -2.7722    1.0829   -0.8079 N   0  0  0  0  0  3           0  0  0
   -0.6697   -0.0000    1.1139 N   0  0  0  0  0  3           0  0  0
    1.3874   -0.0000    0.0000 N   0  0  2  0  0  3           0  0  0
    4.3308    0.1519   -0.0105 N   0  0  1  0  0  3           0  0  0
   -1.8315    0.5724   -1.6332 C   0  0  0  0  0  4           0  0  0
   -0.7580   -0.3444   -3.6632 C   0  0  0  0  0  4           0  0  0
   -3.0140    0.6445    0.5077 C   0  0  0  0  0  4           0  0  0
   -2.0503    0.0476    1.3353 C   0  0  0  0  0  4           0  0  0
   -0.6075    0.0024   -1.3328 C   0  0  0  0  0  4           0  0  0
   -0.0390   -0.5961   -2.5173 C   0  0  0  0  0  4           0  0  0
   -4.3427    0.7517    0.9806 C   0  0  0  0  0  4           0  0  0
   -2.4547   -0.4366    2.5968 C   0  0  0  0  0  4           0  0  0
   -4.7197    0.2681    2.2314 C   0  0  0  0  0  4           0  0  0
   -3.7722   -0.3365    3.0403 C   0  0  0  0  0  4           0  0  0
   -0.0000    0.0000    0.0000 C   0  0  0  0  0  4           0  0  0
    2.2171   -1.2142    0.0000 C   0  0  0  0  0  4           0  0  0
    2.1201    1.2742    0.0202 C   0  0  0  0  0  4           0  0  0
    3.5810   -0.9410   -0.6395 C   0  0  0  0  0  4           0  0  0
    3.4715    1.0966    0.7115 C   0  0  0  0  0  4           0  0  0
    5.4049   -0.3369    0.8487 C   0  0  0  0  0  4           0  0  0
   -0.4576   -0.7657   -5.0586 C   0  0  0  0  0  4           0  0  0
  1  6  1  0     0  0
  1  7  1  0     0  0
  2  6  1  0     0  0
  2  8  1  0     0  0
  3  9  1  0     0  0
  3 16  2  0     0  0
  4 16  1  0     0  0
  4 17  1  0     0  0
  4 18  1  0     0  0
  5 19  1  0     0  0
  5 20  1  0     0  0
  5 21  1  0     0  0
  6 10  2  0     0  0
  7 11  2  0     0  0
  7 22  1  0     0  0
  8  9  1  0     0  0
  8 12  2  0     0  0
  9 13  2  0     0  0
 10 11  1  0     0  0
 10 16  1  0     0  0
 12 14  1  0     0  0
 13 15  1  0     0  0
 14 15  2  0     0  0
 17 19  1  0     0  0
 18 20  1  0     0  0
M  END
> <standard_type>
pIC50

> <# Confs.>
11

> <canonical_smiles>
CN1CCN(CC1)C2=NC3=CC=CC=C3NC4=C2C=C(S4)C

> <standard_relation>
=

> <Publication_ID>
nan

> <predicted_activity_value>
nan

> <actual_activity_value>
-0.7788744720027395

> <Compound>
Olanzapine

> <standard_units>
uM

> hash
9921540949878713077

$$$$
49
XXILIB    08252103503D 0   0.00000     0.00000

 28 31  0     1  0            999 V2000
    1.1532   -0.2656    2.5599 F   0  0  0  0  0  1           0  0  0
   -3.0848    0.0330    4.6357 F   0  0  0  0  0  1           0  0  0
   -4.0252    0.3625   -0.3523 O   0  0  0  0  0  2           0  0  0
   -3.6306   -0.4572   -3.0809 O   0  0  0  0  0  2           0  0  0
   -1.6390    0.4742   -3.6825 O   0  0  0  0  0  2           0  0  0
    0.0000   -0.0000    0.0000 N   0  0  2  0  0  3           0  0  0
   -0.3050   -0.2038    4.9281 N   0  0  1  0  0  3           0  0  0
   -4.3435    0.1914    2.2939 N   0  0  0  0  0  3           0  0  0
    0.8369   -0.2985    7.5458 N   0  0  0  0  0  3           0  0  0
   -0.1781   -0.1103    2.4834 C   0  0  0  0  0  4           0  0  0
   -2.3029    0.0218    3.5411 C   0  0  0  0  0  4           0  0  0
   -2.8197    0.1791   -0.2274 C   0  0  0  0  0  4           0  0  0
   -0.7682    0.0000    1.2026 C   0  0  0  0  0  4           0  0  0
   -0.6388   -0.0492   -1.2225 C   0  0  0  0  0  4           0  0  0
   -0.9111   -0.0980    3.6871 C   0  0  0  0  0  4           0  0  0
   -2.9539    0.1286    2.2980 C   0  0  0  0  0  4           0  0  0
   -2.1758    0.1019    1.1251 C   0  0  0  0  0  4           0  0  0
   -1.9586    0.0211   -1.4379 C   0  0  0  0  0  4           0  0  0
   -2.5250   -0.0283   -2.7918 C   0  0  0  0  0  4           0  0  0
    1.4649    0.0000    0.0000 C   0  0  2  0  0  4           0  0  0
    1.6028    0.2714    6.4328 C   0  0  1  0  0  4           0  0  0
   -0.0080   -1.3984    7.0691 C   0  0  2  0  0  4           0  0  0
    0.6778    0.8100    5.3313 C   0  0  0  0  0  4           0  0  0
   -1.0046   -0.9092    6.0090 C   0  0  0  0  0  4           0  0  0
    2.2657    1.1063    0.6387 C   0  0  0  0  0  4           0  0  0
    2.2617    0.9553   -0.8518 C   0  0  0  0  0  4           0  0  0
    2.5044    1.3829    6.9682 C   0  0  0  0  0  4           0  0  0
   -0.7416   -2.0138    8.2589 C   0  0  0  0  0  4           0  0  0
  1 10  1  0     0  0
  2 11  1  0     0  0
  3 12  2  0     0  0
  4 19  2  0     0  0
  5 19  1  0     0  0
  6 13  1  0     0  0
  6 14  1  0     0  0
  6 20  1  0     0  0
  7 15  1  0     0  0
  7 23  1  0     0  0
  7 24  1  0     0  0
  8 16  1  0     0  0
  9 21  1  0     0  0
  9 22  1  0     0  0
 10 13  2  0     0  0
 10 15  1  0     0  0
 11 15  2  0     0  0
 11 16  1  0     0  0
 12 17  1  0     0  0
 12 18  1  0     0  0
 13 17  1  0     0  0
 14 18  2  0     0  0
 16 17  2  0     0  0
 18 19  1  0     0  0
 20 25  1  0     0  0
 20 26  1  0     0  0
 21 23  1  0     0  0
 21 27  1  0     0  0
 22 24  1  0     0  0
 22 28  1  0     0  0
 25 26  1  0     0  0
M  END
> <standard_type>
pIC50

> <# Confs.>
25

> <canonical_smiles>
OC(C1=CN(C2CC2)C3=C(F)C(N4C[C@H](C)N[C@H](C)C4)=C(F)C(N)=C3C1=O)=O

> <standard_relation>
=

> <Publication_ID>
nan

> <predicted_activity_value>
nan

> <actual_activity_value>
-1.255272505103306

> <Compound>
Sparfloxacin

> <standard_units>
uM

> hash
2214535980791073314

$$$$
49
XXILIB    08252103503D 0   0.00000     0.00000

 28 31  0     1  0            999 V2000
    1.1532   -0.2656    2.5599 F   0  0  0  0  0  1           0  0  0
   -3.0848    0.0330    4.6357 F   0  0  0  0  0  1           0  0  0
   -4.0252    0.3625   -0.3523 O   0  0  0  0  0  2           0  0  0
   -1.9651    0.3530   -3.8071 O   0  0  0  0  0  2           0  0  0
   -3.7679   -0.5619   -2.7542 O   0  0  0  0  0  2           0  0  0
    0.0000   -0.0000    0.0000 N   0  0  2  0  0  3           0  0  0
   -0.3050   -0.2038    4.9281 N   0  0  1  0  0  3           0  0  0
   -4.3435    0.1914    2.2939 N   0  0  0  0  0  3           0  0  0
    0.8369   -0.2985    7.5458 N   0  0  0  0  0  3           0  0  0
   -0.1781   -0.1103    2.4834 C   0  0  0  0  0  4           0  0  0
   -2.3029    0.0218    3.5411 C   0  0  0  0  0  4           0  0  0
   -2.8197    0.1791   -0.2274 C   0  0  0  0  0  4           0  0  0
   -0.7682    0.0000    1.2026 C   0  0  0  0  0  4           0  0  0
   -0.6388   -0.0492   -1.2225 C   0  0  0  0  0  4           0  0  0
   -0.9111   -0.0980    3.6871 C   0  0  0  0  0  4           0  0  0
   -2.9539    0.1286    2.2980 C   0  0  0  0  0  4           0  0  0
   -2.1758    0.1019    1.1251 C   0  0  0  0  0  4           0  0  0
   -1.9586    0.0211   -1.4379 C   0  0  0  0  0  4           0  0  0
   -2.5250   -0.0283   -2.7918 C   0  0  0  0  0  4           0  0  0
    1.4649    0.0000    0.0000 C   0  0  2  0  0  4           0  0  0
    1.6028    0.2714    6.4328 C   0  0  1  0  0  4           0  0  0
   -0.0080   -1.3984    7.0691 C   0  0  2  0  0  4           0  0  0
    0.6778    0.8100    5.3313 C   0  0  0  0  0  4           0  0  0
   -1.0046   -0.9092    6.0090 C   0  0  0  0  0  4           0  0  0
    2.2657    1.1063    0.6387 C   0  0  0  0  0  4           0  0  0
    2.2617    0.9553   -0.8518 C   0  0  0  0  0  4           0  0  0
    2.5044    1.3829    6.9682 C   0  0  0  0  0  4           0  0  0
   -0.7416   -2.0138    8.2589 C   0  0  0  0  0  4           0  0  0
  1 10  1  0     0  0
  2 11  1  0     0  0
  3 12  2  0     0  0
  4 19  2  0     0  0
  5 19  1  0     0  0
  6 13  1  0     0  0
  6 14  1  0     0  0
  6 20  1  0     0  0
  7 15  1  0     0  0
  7 23  1  0     0  0
  7 24  1  0     0  0
  8 16  1  0     0  0
  9 21  1  0     0  0
  9 22  1  0     0  0
 10 13  2  0     0  0
 10 15  1  0     0  0
 11 15  2  0     0  0
 11 16  1  0     0  0
 12 17  1  0     0  0
 12 18  1  0     0  0
 13 17  1  0     0  0
 14 18  2  0     0  0
 16 17  2  0     0  0
 18 19  1  0     0  0
 20 25  1  0     0  0
 20 26  1  0     0  0
 21 23  1  0     0  0
 21 27  1  0     0  0
 22 24  1  0     0  0
 22 28  1  0     0  0
 25 26  1  0     0  0
M  END
> <standard_type>
pIC50

> <# Confs.>
25

> <canonical_smiles>
OC(C1=CN(C2CC2)C3=C(F)C(N4C[C@H](C)N[C@H](C)C4)=C(F)C(N)=C3C1=O)=O

> <standard_relation>
=

> <Publication_ID>
nan

> <predicted_activity_value>
nan

> <actual_activity_value>
-1.255272505103306

> <Compound>
Sparfloxacin

> <standard_units>
uM

> hash
2214535980791073314

$$$$
49
XXILIB    08252103503D 0   0.00000     0.00000

 28 31  0     1  0            999 V2000
    1.1532   -0.2656    2.5599 F   0  0  0  0  0  1           0  0  0
   -3.0848    0.0330    4.6357 F   0  0  0  0  0  1           0  0  0
   -4.0252    0.3625   -0.3523 O   0  0  0  0  0  2           0  0  0
   -3.6306   -0.4572   -3.0809 O   0  0  0  0  0  2           0  0  0
   -1.6390    0.4742   -3.6825 O   0  0  0  0  0  2           0  0  0
    0.0000   -0.0000    0.0000 N   0  0  2  0  0  3           0  0  0
   -0.3050   -0.2038    4.9281 N   0  0  1  0  0  3           0  0  0
   -4.3435    0.1914    2.2939 N   0  0  0  0  0  3           0  0  0
    0.8369   -0.2985    7.5458 N   0  0  0  0  0  3           0  0  0
   -0.1781   -0.1103    2.4834 C   0  0  0  0  0  4           0  0  0
   -2.3029    0.0218    3.5411 C   0  0  0  0  0  4           0  0  0
   -2.8197    0.1791   -0.2274 C   0  0  0  0  0  4           0  0  0
   -0.7682    0.0000    1.2026 C   0  0  0  0  0  4           0  0  0
   -0.6388   -0.0492   -1.2225 C   0  0  0  0  0  4           0  0  0
   -0.9111   -0.0980    3.6871 C   0  0  0  0  0  4           0  0  0
   -2.9539    0.1286    2.2980 C   0  0  0  0  0  4           0  0  0
   -2.1758    0.1019    1.1251 C   0  0  0  0  0  4           0  0  0
   -1.9586    0.0211   -1.4379 C   0  0  0  0  0  4           0  0  0
   -2.5250   -0.0283   -2.7918 C   0  0  0  0  0  4           0  0  0
    1.4649    0.0000    0.0000 C   0  0  2  0  0  4           0  0  0
    1.6028    0.2714    6.4328 C   0  0  1  0  0  4           0  0  0
   -0.0080   -1.3984    7.0691 C   0  0  2  0  0  4           0  0  0
    0.6778    0.8100    5.3313 C   0  0  0  0  0  4           0  0  0
   -1.0046   -0.9092    6.0090 C   0  0  0  0  0  4           0  0  0
    2.2657   -0.6387   -1.1063 C   0  0  0  0  0  4           0  0  0
    2.2617   -1.2532    0.2601 C   0  0  0  0  0  4           0  0  0
    2.5044    1.3829    6.9682 C   0  0  0  0  0  4           0  0  0
   -0.7416   -2.0138    8.2589 C   0  0  0  0  0  4           0  0  0
  1 10  1  0     0  0
  2 11  1  0     0  0
  3 12  2  0     0  0
  4 19  2  0     0  0
  5 19  1  0     0  0
  6 13  1  0     0  0
  6 14  1  0     0  0
  6 20  1  0     0  0
  7 15  1  0     0  0
  7 23  1  0     0  0
  7 24  1  0     0  0
  8 16  1  0     0  0
  9 21  1  0     0  0
  9 22  1  0     0  0
 10 13  2  0     0  0
 10 15  1  0     0  0
 11 15  2  0     0  0
 11 16  1  0     0  0
 12 17  1  0     0  0
 12 18  1  0     0  0
 13 17  1  0     0  0
 14 18  2  0     0  0
 16 17  2  0     0  0
 18 19  1  0     0  0
 20 25  1  0     0  0
 20 26  1  0     0  0
 21 23  1  0     0  0
 21 27  1  0     0  0
 22 24  1  0     0  0
 22 28  1  0     0  0
 25 26  1  0     0  0
M  END
> <standard_type>
pIC50

> <# Confs.>
25

> <canonical_smiles>
OC(C1=CN(C2CC2)C3=C(F)C(N4C[C@H](C)N[C@H](C)C4)=C(F)C(N)=C3C1=O)=O

> <standard_relation>
=

> <Publication_ID>
nan

> <predicted_activity_value>
nan

> <actual_activity_value>
-1.255272505103306

> <Compound>
Sparfloxacin

> <standard_units>
uM

> hash
2214535980791073314

$$$$
49
XXILIB    08252103503D 0   0.00000     0.00000

 28 31  0     1  0            999 V2000
    1.1532   -0.2656    2.5599 F   0  0  0  0  0  1           0  0  0
   -3.0848    0.0330    4.6357 F   0  0  0  0  0  1           0  0  0
   -4.0252    0.3625   -0.3523 O   0  0  0  0  0  2           0  0  0
   -3.6306   -0.4572   -3.0809 O   0  0  0  0  0  2           0  0  0
   -1.6390    0.4742   -3.6825 O   0  0  0  0  0  2           0  0  0
    0.0000   -0.0000    0.0000 N   0  0  2  0  0  3           0  0  0
   -0.3050   -0.2038    4.9281 N   0  0  1  0  0  3           0  0  0
   -4.3435    0.1914    2.2939 N   0  0  0  0  0  3           0  0  0
    0.7904   -0.4661    7.5543 N   0  0  0  0  0  3           0  0  0
   -0.1781   -0.1103    2.4834 C   0  0  0  0  0  4           0  0  0
   -2.3029    0.0218    3.5411 C   0  0  0  0  0  4           0  0  0
   -2.8197    0.1791   -0.2274 C   0  0  0  0  0  4           0  0  0
   -0.7682    0.0000    1.2026 C   0  0  0  0  0  4           0  0  0
   -0.6388   -0.0492   -1.2225 C   0  0  0  0  0  4           0  0  0
   -0.9111   -0.0980    3.6871 C   0  0  0  0  0  4           0  0  0
   -2.9539    0.1286    2.2980 C   0  0  0  0  0  4           0  0  0
   -2.1758    0.1019    1.1251 C   0  0  0  0  0  4           0  0  0
   -1.9586    0.0211   -1.4379 C   0  0  0  0  0  4           0  0  0
   -2.5250   -0.0283   -2.7918 C   0  0  0  0  0  4           0  0  0
    1.4649    0.0000    0.0000 C   0  0  2  0  0  4           0  0  0
    0.6503    0.8619    6.9484 C   0  0  1  0  0  4           0  0  0
    1.0969   -1.4637    6.5240 C   0  0  2  0  0  4           0  0  0
   -0.4707    0.8856    5.8987 C   0  0  0  0  0  4           0  0  0
   -0.0223   -1.5363    5.4758 C   0  0  0  0  0  4           0  0  0
    2.2657    1.1063    0.6387 C   0  0  0  0  0  4           0  0  0
    2.2617    0.9553   -0.8518 C   0  0  0  0  0  4           0  0  0
    0.3761    1.8841    8.0505 C   0  0  0  0  0  4           0  0  0
    1.3022   -2.8217    7.1919 C   0  0  0  0  0  4           0  0  0
  1 10  1  0     0  0
  2 11  1  0     0  0
  3 12  2  0     0  0
  4 19  2  0     0  0
  5 19  1  0     0  0
  6 13  1  0     0  0
  6 14  1  0     0  0
  6 20  1  0     0  0
  7 15  1  0     0  0
  7 23  1  0     0  0
  7 24  1  0     0  0
  8 16  1  0     0  0
  9 21  1  0     0  0
  9 22  1  0     0  0
 10 13  2  0     0  0
 10 15  1  0     0  0
 11 15  2  0     0  0
 11 16  1  0     0  0
 12 17  1  0     0  0
 12 18  1  0     0  0
 13 17  1  0     0  0
 14 18  2  0     0  0
 16 17  2  0     0  0
 18 19  1  0     0  0
 20 25  1  0     0  0
 20 26  1  0     0  0
 21 23  1  0     0  0
 21 27  1  0     0  0
 22 24  1  0     0  0
 22 28  1  0     0  0
 25 26  1  0     0  0
M  END
> <standard_type>
pIC50

> <# Confs.>
25

> <canonical_smiles>
OC(C1=CN(C2CC2)C3=C(F)C(N4C[C@H](C)N[C@H](C)C4)=C(F)C(N)=C3C1=O)=O

> <standard_relation>
=

> <Publication_ID>
nan

> <predicted_activity_value>
nan

> <actual_activity_value>
-1.255272505103306

> <Compound>
Sparfloxacin

> <standard_units>
uM

> hash
2214535980791073314

$$$$
49
XXILIB    08252103503D 0   0.00000     0.00000

 28 31  0     1  0            999 V2000
    1.1532   -0.2656    2.5599 F   0  0  0  0  0  1           0  0  0
   -3.0848    0.0330    4.6357 F   0  0  0  0  0  1           0  0  0
   -4.0252    0.3625   -0.3523 O   0  0  0  0  0  2           0  0  0
   -1.9651    0.3530   -3.8071 O   0  0  0  0  0  2           0  0  0
   -3.7679   -0.5619   -2.7542 O   0  0  0  0  0  2           0  0  0
    0.0000   -0.0000    0.0000 N   0  0  2  0  0  3           0  0  0
   -0.3050   -0.2038    4.9281 N   0  0  1  0  0  3           0  0  0
   -4.3435    0.1914    2.2939 N   0  0  0  0  0  3           0  0  0
    0.8369   -0.2985    7.5458 N   0  0  0  0  0  3           0  0  0
   -0.1781   -0.1103    2.4834 C   0  0  0  0  0  4           0  0  0
   -2.3029    0.0218    3.5411 C   0  0  0  0  0  4           0  0  0
   -2.8197    0.1791   -0.2274 C   0  0  0  0  0  4           0  0  0
   -0.7682    0.0000    1.2026 C   0  0  0  0  0  4           0  0  0
   -0.6388   -0.0492   -1.2225 C   0  0  0  0  0  4           0  0  0
   -0.9111   -0.0980    3.6871 C   0  0  0  0  0  4           0  0  0
   -2.9539    0.1286    2.2980 C   0  0  0  0  0  4           0  0  0
   -2.1758    0.1019    1.1251 C   0  0  0  0  0  4           0  0  0
   -1.9586    0.0211   -1.4379 C   0  0  0  0  0  4           0  0  0
   -2.5250   -0.0283   -2.7918 C   0  0  0  0  0  4           0  0  0
    1.4649    0.0000    0.0000 C   0  0  2  0  0  4           0  0  0
    1.6028    0.2714    6.4328 C   0  0  1  0  0  4           0  0  0
   -0.0080   -1.3984    7.0691 C   0  0  2  0  0  4           0  0  0
    0.6778    0.8100    5.3313 C   0  0  0  0  0  4           0  0  0
   -1.0046   -0.9092    6.0090 C   0  0  0  0  0  4           0  0  0
    2.2657   -0.6387   -1.1063 C   0  0  0  0  0  4           0  0  0
    2.2617   -1.2532    0.2601 C   0  0  0  0  0  4           0  0  0
    2.5044    1.3829    6.9682 C   0  0  0  0  0  4           0  0  0
   -0.7416   -2.0138    8.2589 C   0  0  0  0  0  4           0  0  0
  1 10  1  0     0  0
  2 11  1  0     0  0
  3 12  2  0     0  0
  4 19  2  0     0  0
  5 19  1  0     0  0
  6 13  1  0     0  0
  6 14  1  0     0  0
  6 20  1  0     0  0
  7 15  1  0     0  0
  7 23  1  0     0  0
  7 24  1  0     0  0
  8 16  1  0     0  0
  9 21  1  0     0  0
  9 22  1  0     0  0
 10 13  2  0     0  0
 10 15  1  0     0  0
 11 15  2  0     0  0
 11 16  1  0     0  0
 12 17  1  0     0  0
 12 18  1  0     0  0
 13 17  1  0     0  0
 14 18  2  0     0  0
 16 17  2  0     0  0
 18 19  1  0     0  0
 20 25  1  0     0  0
 20 26  1  0     0  0
 21 23  1  0     0  0
 21 27  1  0     0  0
 22 24  1  0     0  0
 22 28  1  0     0  0
 25 26  1  0     0  0
M  END
> <standard_type>
pIC50

> <# Confs.>
25

> <canonical_smiles>
OC(C1=CN(C2CC2)C3=C(F)C(N4C[C@H](C)N[C@H](C)C4)=C(F)C(N)=C3C1=O)=O

> <standard_relation>
=

> <Publication_ID>
nan

> <predicted_activity_value>
nan

> <actual_activity_value>
-1.255272505103306

> <Compound>
Sparfloxacin

> <standard_units>
uM

> hash
2214535980791073314

$$$$
49
XXILIB    08252103503D 0   0.00000     0.00000

 28 31  0     1  0            999 V2000
    1.1532   -0.2656    2.5599 F   0  0  0  0  0  1           0  0  0
   -3.0848    0.0330    4.6357 F   0  0  0  0  0  1           0  0  0
   -4.0252    0.3625   -0.3523 O   0  0  0  0  0  2           0  0  0
   -1.9651    0.3530   -3.8071 O   0  0  0  0  0  2           0  0  0
   -3.7679   -0.5619   -2.7542 O   0  0  0  0  0  2           0  0  0
    0.0000   -0.0000    0.0000 N   0  0  2  0  0  3           0  0  0
   -0.3050   -0.2038    4.9281 N   0  0  1  0  0  3           0  0  0
   -4.3435    0.1914    2.2939 N   0  0  0  0  0  3           0  0  0
    0.7904   -0.4661    7.5543 N   0  0  0  0  0  3           0  0  0
   -0.1781   -0.1103    2.4834 C   0  0  0  0  0  4           0  0  0
   -2.3029    0.0218    3.5411 C   0  0  0  0  0  4           0  0  0
   -2.8197    0.1791   -0.2274 C   0  0  0  0  0  4           0  0  0
   -0.7682    0.0000    1.2026 C   0  0  0  0  0  4           0  0  0
   -0.6388   -0.0492   -1.2225 C   0  0  0  0  0  4           0  0  0
   -0.9111   -0.0980    3.6871 C   0  0  0  0  0  4           0  0  0
   -2.9539    0.1286    2.2980 C   0  0  0  0  0  4           0  0  0
   -2.1758    0.1019    1.1251 C   0  0  0  0  0  4           0  0  0
   -1.9586    0.0211   -1.4379 C   0  0  0  0  0  4           0  0  0
   -2.5250   -0.0283   -2.7918 C   0  0  0  0  0  4           0  0  0
    1.4649    0.0000    0.0000 C   0  0  2  0  0  4           0  0  0
    0.6503    0.8619    6.9484 C   0  0  1  0  0  4           0  0  0
    1.0969   -1.4637    6.5240 C   0  0  2  0  0  4           0  0  0
   -0.4707    0.8856    5.8987 C   0  0  0  0  0  4           0  0  0
   -0.0223   -1.5363    5.4758 C   0  0  0  0  0  4           0  0  0
    2.2657    1.1063    0.6387 C   0  0  0  0  0  4           0  0  0
    2.2617    0.9553   -0.8518 C   0  0  0  0  0  4           0  0  0
    0.3761    1.8841    8.0505 C   0  0  0  0  0  4           0  0  0
    1.3022   -2.8217    7.1919 C   0  0  0  0  0  4           0  0  0
  1 10  1  0     0  0
  2 11  1  0     0  0
  3 12  2  0     0  0
  4 19  2  0     0  0
  5 19  1  0     0  0
  6 13  1  0     0  0
  6 14  1  0     0  0
  6 20  1  0     0  0
  7 15  1  0     0  0
  7 23  1  0     0  0
  7 24  1  0     0  0
  8 16  1  0     0  0
  9 21  1  0     0  0
  9 22  1  0     0  0
 10 13  2  0     0  0
 10 15  1  0     0  0
 11 15  2  0     0  0
 11 16  1  0     0  0
 12 17  1  0     0  0
 12 18  1  0     0  0
 13 17  1  0     0  0
 14 18  2  0     0  0
 16 17  2  0     0  0
 18 19  1  0     0  0
 20 25  1  0     0  0
 20 26  1  0     0  0
 21 23  1  0     0  0
 21 27  1  0     0  0
 22 24  1  0     0  0
 22 28  1  0     0  0
 25 26  1  0     0  0
M  END
> <standard_type>
pIC50

> <# Confs.>
25

> <canonical_smiles>
OC(C1=CN(C2CC2)C3=C(F)C(N4C[C@H](C)N[C@H](C)C4)=C(F)C(N)=C3C1=O)=O

> <standard_relation>
=

> <Publication_ID>
nan

> <predicted_activity_value>
nan

> <actual_activity_value>
-1.255272505103306

> <Compound>
Sparfloxacin

> <standard_units>
uM

> hash
2214535980791073314

$$$$
49
XXILIB    08252103503D 0   0.00000     0.00000

 28 31  0     1  0            999 V2000
    1.1532   -0.2656    2.5599 F   0  0  0  0  0  1           0  0  0
   -3.0848    0.0330    4.6357 F   0  0  0  0  0  1           0  0  0
   -4.0252    0.3625   -0.3523 O   0  0  0  0  0  2           0  0  0
   -3.6306   -0.4572   -3.0809 O   0  0  0  0  0  2           0  0  0
   -1.6390    0.4742   -3.6825 O   0  0  0  0  0  2           0  0  0
    0.0000   -0.0000    0.0000 N   0  0  2  0  0  3           0  0  0
   -0.3097   -0.2030    4.9184 N   0  0  1  0  0  3           0  0  0
   -4.3435    0.1914    2.2939 N   0  0  0  0  0  3           0  0  0
    2.0111    0.6515    6.3187 N   0  0  0  0  0  3           0  0  0
   -0.1781   -0.1103    2.4834 C   0  0  0  0  0  4           0  0  0
   -2.3029    0.0218    3.5411 C   0  0  0  0  0  4           0  0  0
   -2.8197    0.1791   -0.2274 C   0  0  0  0  0  4           0  0  0
   -0.7682    0.0000    1.2026 C   0  0  0  0  0  4           0  0  0
   -0.6388   -0.0492   -1.2225 C   0  0  0  0  0  4           0  0  0
   -0.9111   -0.0980    3.6871 C   0  0  0  0  0  4           0  0  0
   -2.9539    0.1286    2.2980 C   0  0  0  0  0  4           0  0  0
   -2.1758    0.1019    1.1251 C   0  0  0  0  0  4           0  0  0
   -1.9586    0.0211   -1.4379 C   0  0  0  0  0  4           0  0  0
   -2.5250   -0.0283   -2.7918 C   0  0  0  0  0  4           0  0  0
    1.4649    0.0000    0.0000 C   0  0  2  0  0  4           0  0  0
    0.9099    1.5890    6.0378 C   0  0  1  0  0  4           0  0  0
    2.0931   -0.4054    5.2955 C   0  0  2  0  0  4           0  0  0
   -0.4331    0.8456    5.9341 C   0  0  0  0  0  4           0  0  0
    0.7615   -1.1675    5.1802 C   0  0  0  0  0  4           0  0  0
    2.2657    1.1063    0.6387 C   0  0  0  0  0  4           0  0  0
    2.2617    0.9553   -0.8518 C   0  0  0  0  0  4           0  0  0
    0.8592    2.6436    7.1410 C   0  0  0  0  0  4           0  0  0
    3.2304   -1.3583    5.6565 C   0  0  0  0  0  4           0  0  0
  1 10  1  0     0  0
  2 11  1  0     0  0
  3 12  2  0     0  0
  4 19  2  0     0  0
  5 19  1  0     0  0
  6 13  1  0     0  0
  6 14  1  0     0  0
  6 20  1  0     0  0
  7 15  1  0     0  0
  7 23  1  0     0  0
  7 24  1  0     0  0
  8 16  1  0     0  0
  9 21  1  0     0  0
  9 22  1  0     0  0
 10 13  2  0     0  0
 10 15  1  0     0  0
 11 15  2  0     0  0
 11 16  1  0     0  0
 12 17  1  0     0  0
 12 18  1  0     0  0
 13 17  1  0     0  0
 14 18  2  0     0  0
 16 17  2  0     0  0
 18 19  1  0     0  0
 20 25  1  0     0  0
 20 26  1  0     0  0
 21 23  1  0     0  0
 21 27  1  0     0  0
 22 24  1  0     0  0
 22 28  1  0     0  0
 25 26  1  0     0  0
M  END
> <standard_type>
pIC50

> <# Confs.>
25

> <canonical_smiles>
OC(C1=CN(C2CC2)C3=C(F)C(N4C[C@H](C)N[C@H](C)C4)=C(F)C(N)=C3C1=O)=O

> <standard_relation>
=

> <Publication_ID>
nan

> <predicted_activity_value>
nan

> <actual_activity_value>
-1.255272505103306

> <Compound>
Sparfloxacin

> <standard_units>
uM

> hash
2214535980791073314

$$$$
49
XXILIB    08252103503D 0   0.00000     0.00000

 28 31  0     1  0            999 V2000
    1.1532   -0.2656    2.5599 F   0  0  0  0  0  1           0  0  0
   -3.0848    0.0330    4.6357 F   0  0  0  0  0  1           0  0  0
   -4.0252    0.3625   -0.3523 O   0  0  0  0  0  2           0  0  0
   -3.5483    0.5316   -3.1514 O   0  0  0  0  0  2           0  0  0
   -1.7441   -0.7898   -3.5925 O   0  0  0  0  0  2           0  0  0
    0.0000   -0.0000    0.0000 N   0  0  2  0  0  3           0  0  0
   -0.3050   -0.2038    4.9281 N   0  0  1  0  0  3           0  0  0
   -4.3435    0.1914    2.2939 N   0  0  0  0  0  3           0  0  0
    1.0926   -0.4670    7.4066 N   0  0  0  0  0  3           0  0  0
   -0.1781   -0.1103    2.4834 C   0  0  0  0  0  4           0  0  0
   -2.3029    0.0218    3.5411 C   0  0  0  0  0  4           0  0  0
   -2.8197    0.1791   -0.2274 C   0  0  0  0  0  4           0  0  0
   -0.7682    0.0000    1.2026 C   0  0  0  0  0  4           0  0  0
   -0.6388   -0.0492   -1.2225 C   0  0  0  0  0  4           0  0  0
   -0.9111   -0.0980    3.6871 C   0  0  0  0  0  4           0  0  0
   -2.9539    0.1286    2.2980 C   0  0  0  0  0  4           0  0  0
   -2.1758    0.1019    1.1251 C   0  0  0  0  0  4           0  0  0
   -1.9586    0.0211   -1.4379 C   0  0  0  0  0  4           0  0  0
   -2.5250   -0.0283   -2.7918 C   0  0  0  0  0  4           0  0  0
    1.4649    0.0000    0.0000 C   0  0  2  0  0  4           0  0  0
    0.0660   -1.4466    7.0370 C   0  0  1  0  0  4           0  0  0
    0.7313    0.8613    6.9007 C   0  0  2  0  0  4           0  0  0
   -0.1037   -1.5355    5.5130 C   0  0  0  0  0  4           0  0  0
    0.6109    0.8549    5.3703 C   0  0  0  0  0  4           0  0  0
    2.2657    1.1063    0.6387 C   0  0  0  0  0  4           0  0  0
    2.2617    0.9553   -0.8518 C   0  0  0  0  0  4           0  0  0
    0.4480   -2.8084    7.6153 C   0  0  0  0  0  4           0  0  0
    1.7830    1.8704    7.3570 C   0  0  0  0  0  4           0  0  0
  1 10  1  0     0  0
  2 11  1  0     0  0
  3 12  2  0     0  0
  4 19  2  0     0  0
  5 19  1  0     0  0
  6 13  1  0     0  0
  6 14  1  0     0  0
  6 20  1  0     0  0
  7 15  1  0     0  0
  7 23  1  0     0  0
  7 24  1  0     0  0
  8 16  1  0     0  0
  9 21  1  0     0  0
  9 22  1  0     0  0
 10 13  2  0     0  0
 10 15  1  0     0  0
 11 15  2  0     0  0
 11 16  1  0     0  0
 12 17  1  0     0  0
 12 18  1  0     0  0
 13 17  1  0     0  0
 14 18  2  0     0  0
 16 17  2  0     0  0
 18 19  1  0     0  0
 20 25  1  0     0  0
 20 26  1  0     0  0
 21 23  1  0     0  0
 21 27  1  0     0  0
 22 24  1  0     0  0
 22 28  1  0     0  0
 25 26  1  0     0  0
M  END
> <standard_type>
pIC50

> <# Confs.>
25

> <canonical_smiles>
OC(C1=CN(C2CC2)C3=C(F)C(N4C[C@H](C)N[C@H](C)C4)=C(F)C(N)=C3C1=O)=O

> <standard_relation>
=

> <Publication_ID>
nan

> <predicted_activity_value>
nan

> <actual_activity_value>
-1.255272505103306

> <Compound>
Sparfloxacin

> <standard_units>
uM

> hash
2214535980791073314

$$$$
49
XXILIB    08252103503D 0   0.00000     0.00000

 28 31  0     1  0            999 V2000
    1.1532   -0.2656    2.5599 F   0  0  0  0  0  1           0  0  0
   -3.0848    0.0330    4.6357 F   0  0  0  0  0  1           0  0  0
   -4.0252    0.3625   -0.3523 O   0  0  0  0  0  2           0  0  0
   -3.6306   -0.4572   -3.0809 O   0  0  0  0  0  2           0  0  0
   -1.6390    0.4742   -3.6825 O   0  0  0  0  0  2           0  0  0
    0.0000   -0.0000    0.0000 N   0  0  2  0  0  3           0  0  0
   -0.3097   -0.2030    4.9184 N   0  0  1  0  0  3           0  0  0
   -4.3435    0.1914    2.2939 N   0  0  0  0  0  3           0  0  0
   -0.7010   -1.3942    7.4690 N   0  0  0  0  0  3           0  0  0
   -0.1781   -0.1103    2.4834 C   0  0  0  0  0  4           0  0  0
   -2.3029    0.0218    3.5411 C   0  0  0  0  0  4           0  0  0
   -2.8197    0.1791   -0.2274 C   0  0  0  0  0  4           0  0  0
   -0.7682    0.0000    1.2026 C   0  0  0  0  0  4           0  0  0
   -0.6388   -0.0492   -1.2225 C   0  0  0  0  0  4           0  0  0
   -0.9111   -0.0980    3.6871 C   0  0  0  0  0  4           0  0  0
   -2.9539    0.1286    2.2980 C   0  0  0  0  0  4           0  0  0
   -2.1758    0.1019    1.1251 C   0  0  0  0  0  4           0  0  0
   -1.9586    0.0211   -1.4379 C   0  0  0  0  0  4           0  0  0
   -2.5250   -0.0283   -2.7918 C   0  0  0  0  0  4           0  0  0
    1.4649    0.0000    0.0000 C   0  0  2  0  0  4           0  0  0
   -0.3044   -2.2087    6.3071 C   0  0  1  0  0  4           0  0  0
   -1.4832   -0.2151    7.0584 C   0  0  2  0  0  4           0  0  0
    0.4928   -1.3700    5.2931 C   0  0  0  0  0  4           0  0  0
   -0.7010    0.6429    6.0489 C   0  0  0  0  0  4           0  0  0
    2.2657    1.1063    0.6387 C   0  0  0  0  0  4           0  0  0
    2.2617    0.9553   -0.8518 C   0  0  0  0  0  4           0  0  0
    0.5214   -3.3986    6.7909 C   0  0  0  0  0  4           0  0  0
   -1.8382    0.6013    8.2991 C   0  0  0  0  0  4           0  0  0
  1 10  1  0     0  0
  2 11  1  0     0  0
  3 12  2  0     0  0
  4 19  2  0     0  0
  5 19  1  0     0  0
  6 13  1  0     0  0
  6 14  1  0     0  0
  6 20  1  0     0  0
  7 15  1  0     0  0
  7 23  1  0     0  0
  7 24  1  0     0  0
  8 16  1  0     0  0
  9 21  1  0     0  0
  9 22  1  0     0  0
 10 13  2  0     0  0
 10 15  1  0     0  0
 11 15  2  0     0  0
 11 16  1  0     0  0
 12 17  1  0     0  0
 12 18  1  0     0  0
 13 17  1  0     0  0
 14 18  2  0     0  0
 16 17  2  0     0  0
 18 19  1  0     0  0
 20 25  1  0     0  0
 20 26  1  0     0  0
 21 23  1  0     0  0
 21 27  1  0     0  0
 22 24  1  0     0  0
 22 28  1  0     0  0
 25 26  1  0     0  0
M  END
> <standard_type>
pIC50

> <# Confs.>
25

> <canonical_smiles>
OC(C1=CN(C2CC2)C3=C(F)C(N4C[C@H](C)N[C@H](C)C4)=C(F)C(N)=C3C1=O)=O

> <standard_relation>
=

> <Publication_ID>
nan

> <predicted_activity_value>
nan

> <actual_activity_value>
-1.255272505103306

> <Compound>
Sparfloxacin

> <standard_units>
uM

> hash
2214535980791073314

$$$$
49
XXILIB    08252103503D 0   0.00000     0.00000

 28 31  0     1  0            999 V2000
    1.1532   -0.2656    2.5599 F   0  0  0  0  0  1           0  0  0
   -3.0848    0.0330    4.6357 F   0  0  0  0  0  1           0  0  0
   -4.0252    0.3625   -0.3523 O   0  0  0  0  0  2           0  0  0
   -1.9651    0.3530   -3.8071 O   0  0  0  0  0  2           0  0  0
   -3.7679   -0.5619   -2.7542 O   0  0  0  0  0  2           0  0  0
    0.0000   -0.0000    0.0000 N   0  0  2  0  0  3           0  0  0
   -0.3097   -0.2030    4.9184 N   0  0  1  0  0  3           0  0  0
   -4.3435    0.1914    2.2939 N   0  0  0  0  0  3           0  0  0
    2.0111    0.6515    6.3187 N   0  0  0  0  0  3           0  0  0
   -0.1781   -0.1103    2.4834 C   0  0  0  0  0  4           0  0  0
   -2.3029    0.0218    3.5411 C   0  0  0  0  0  4           0  0  0
   -2.8197    0.1791   -0.2274 C   0  0  0  0  0  4           0  0  0
   -0.7682    0.0000    1.2026 C   0  0  0  0  0  4           0  0  0
   -0.6388   -0.0492   -1.2225 C   0  0  0  0  0  4           0  0  0
   -0.9111   -0.0980    3.6871 C   0  0  0  0  0  4           0  0  0
   -2.9539    0.1286    2.2980 C   0  0  0  0  0  4           0  0  0
   -2.1758    0.1019    1.1251 C   0  0  0  0  0  4           0  0  0
   -1.9586    0.0211   -1.4379 C   0  0  0  0  0  4           0  0  0
   -2.5250   -0.0283   -2.7918 C   0  0  0  0  0  4           0  0  0
    1.4649    0.0000    0.0000 C   0  0  2  0  0  4           0  0  0
    0.9099    1.5890    6.0378 C   0  0  1  0  0  4           0  0  0
    2.0931   -0.4054    5.2955 C   0  0  2  0  0  4           0  0  0
   -0.4331    0.8456    5.9341 C   0  0  0  0  0  4           0  0  0
    0.7615   -1.1675    5.1802 C   0  0  0  0  0  4           0  0  0
    2.2657    1.1063    0.6387 C   0  0  0  0  0  4           0  0  0
    2.2617    0.9553   -0.8518 C   0  0  0  0  0  4           0  0  0
    0.8592    2.6436    7.1410 C   0  0  0  0  0  4           0  0  0
    3.2304   -1.3583    5.6565 C   0  0  0  0  0  4           0  0  0
  1 10  1  0     0  0
  2 11  1  0     0  0
  3 12  2  0     0  0
  4 19  2  0     0  0
  5 19  1  0     0  0
  6 13  1  0     0  0
  6 14  1  0     0  0
  6 20  1  0     0  0
  7 15  1  0     0  0
  7 23  1  0     0  0
  7 24  1  0     0  0
  8 16  1  0     0  0
  9 21  1  0     0  0
  9 22  1  0     0  0
 10 13  2  0     0  0
 10 15  1  0     0  0
 11 15  2  0     0  0
 11 16  1  0     0  0
 12 17  1  0     0  0
 12 18  1  0     0  0
 13 17  1  0     0  0
 14 18  2  0     0  0
 16 17  2  0     0  0
 18 19  1  0     0  0
 20 25  1  0     0  0
 20 26  1  0     0  0
 21 23  1  0     0  0
 21 27  1  0     0  0
 22 24  1  0     0  0
 22 28  1  0     0  0
 25 26  1  0     0  0
M  END
> <standard_type>
pIC50

> <# Confs.>
25

> <canonical_smiles>
OC(C1=CN(C2CC2)C3=C(F)C(N4C[C@H](C)N[C@H](C)C4)=C(F)C(N)=C3C1=O)=O

> <standard_relation>
=

> <Publication_ID>
nan

> <predicted_activity_value>
nan

> <actual_activity_value>
-1.255272505103306

> <Compound>
Sparfloxacin

> <standard_units>
uM

> hash
2214535980791073314

$$$$
49
XXILIB    08252103503D 0   0.00000     0.00000

 28 31  0     1  0            999 V2000
    1.1532   -0.2656    2.5599 F   0  0  0  0  0  1           0  0  0
   -3.0848    0.0330    4.6357 F   0  0  0  0  0  1           0  0  0
   -4.0252    0.3625   -0.3523 O   0  0  0  0  0  2           0  0  0
   -3.5483    0.5316   -3.1514 O   0  0  0  0  0  2           0  0  0
   -1.7441   -0.7898   -3.5925 O   0  0  0  0  0  2           0  0  0
    0.0000   -0.0000    0.0000 N   0  0  2  0  0  3           0  0  0
   -0.3060   -0.2036    4.9261 N   0  0  1  0  0  3           0  0  0
   -4.3435    0.1914    2.2939 N   0  0  0  0  0  3           0  0  0
    1.0701   -0.2976    7.4219 N   0  0  0  0  0  3           0  0  0
   -0.1781   -0.1103    2.4834 C   0  0  0  0  0  4           0  0  0
   -2.3029    0.0218    3.5411 C   0  0  0  0  0  4           0  0  0
   -2.8197    0.1791   -0.2274 C   0  0  0  0  0  4           0  0  0
   -0.7682    0.0000    1.2026 C   0  0  0  0  0  4           0  0  0
   -0.6388   -0.0492   -1.2225 C   0  0  0  0  0  4           0  0  0
   -0.9111   -0.0980    3.6871 C   0  0  0  0  0  4           0  0  0
   -2.9539    0.1286    2.2980 C   0  0  0  0  0  4           0  0  0
   -2.1758    0.1019    1.1251 C   0  0  0  0  0  4           0  0  0
   -1.9586    0.0211   -1.4379 C   0  0  0  0  0  4           0  0  0
   -2.5250   -0.0283   -2.7918 C   0  0  0  0  0  4           0  0  0
    1.4649    0.0000    0.0000 C   0  0  2  0  0  4           0  0  0
    1.5720   -1.0697    6.2851 C   0  0  1  0  0  4           0  0  0
    0.2075    0.8410    7.1075 C   0  0  2  0  0  4           0  0  0
    0.4863   -1.3935    5.2494 C   0  0  0  0  0  4           0  0  0
   -0.8774    0.5016    6.0768 C   0  0  0  0  0  4           0  0  0
    2.2657    1.1063    0.6387 C   0  0  0  0  0  4           0  0  0
    2.2617    0.9553   -0.8518 C   0  0  0  0  0  4           0  0  0
    2.8117   -0.4474    5.6352 C   0  0  0  0  0  4           0  0  0
    0.9888    2.0997    6.7194 C   0  0  0  0  0  4           0  0  0
  1 10  1  0     0  0
  2 11  1  0     0  0
  3 12  2  0     0  0
  4 19  2  0     0  0
  5 19  1  0     0  0
  6 13  1  0     0  0
  6 14  1  0     0  0
  6 20  1  0     0  0
  7 15  1  0     0  0
  7 23  1  0     0  0
  7 24  1  0     0  0
  8 16  1  0     0  0
  9 21  1  0     0  0
  9 22  1  0     0  0
 10 13  2  0     0  0
 10 15  1  0     0  0
 11 15  2  0     0  0
 11 16  1  0     0  0
 12 17  1  0     0  0
 12 18  1  0     0  0
 13 17  1  0     0  0
 14 18  2  0     0  0
 16 17  2  0     0  0
 18 19  1  0     0  0
 20 25  1  0     0  0
 20 26  1  0     0  0
 21 23  1  0     0  0
 21 27  1  0     0  0
 22 24  1  0     0  0
 22 28  1  0     0  0
 25 26  1  0     0  0
M  END
> <standard_type>
pIC50

> <# Confs.>
25

> <canonical_smiles>
OC(C1=CN(C2CC2)C3=C(F)C(N4C[C@H](C)N[C@H](C)C4)=C(F)C(N)=C3C1=O)=O

> <standard_relation>
=

> <Publication_ID>
nan

> <predicted_activity_value>
nan

> <actual_activity_value>
-1.255272505103306

> <Compound>
Sparfloxacin

> <standard_units>
uM

> hash
2214535980791073314

$$$$
49
XXILIB    08252103503D 0   0.00000     0.00000

 28 31  0     1  0            999 V2000
    1.1532   -0.2656    2.5599 F   0  0  0  0  0  1           0  0  0
   -3.0848    0.0330    4.6357 F   0  0  0  0  0  1           0  0  0
   -4.0252    0.3625   -0.3523 O   0  0  0  0  0  2           0  0  0
   -1.9651    0.3530   -3.8071 O   0  0  0  0  0  2           0  0  0
   -3.7679   -0.5619   -2.7542 O   0  0  0  0  0  2           0  0  0
    0.0000   -0.0000    0.0000 N   0  0  2  0  0  3           0  0  0
   -0.3097   -0.2030    4.9184 N   0  0  1  0  0  3           0  0  0
   -4.3435    0.1914    2.2939 N   0  0  0  0  0  3           0  0  0
   -0.7010   -1.3942    7.4690 N   0  0  0  0  0  3           0  0  0
   -0.1781   -0.1103    2.4834 C   0  0  0  0  0  4           0  0  0
   -2.3029    0.0218    3.5411 C   0  0  0  0  0  4           0  0  0
   -2.8197    0.1791   -0.2274 C   0  0  0  0  0  4           0  0  0
   -0.7682    0.0000    1.2026 C   0  0  0  0  0  4           0  0  0
   -0.6388   -0.0492   -1.2225 C   0  0  0  0  0  4           0  0  0
   -0.9111   -0.0980    3.6871 C   0  0  0  0  0  4           0  0  0
   -2.9539    0.1286    2.2980 C   0  0  0  0  0  4           0  0  0
   -2.1758    0.1019    1.1251 C   0  0  0  0  0  4           0  0  0
   -1.9586    0.0211   -1.4379 C   0  0  0  0  0  4           0  0  0
   -2.5250   -0.0283   -2.7918 C   0  0  0  0  0  4           0  0  0
    1.4649    0.0000    0.0000 C   0  0  2  0  0  4           0  0  0
   -0.3044   -2.2087    6.3071 C   0  0  1  0  0  4           0  0  0
   -1.4832   -0.2151    7.0584 C   0  0  2  0  0  4           0  0  0
    0.4928   -1.3700    5.2931 C   0  0  0  0  0  4           0  0  0
   -0.7010    0.6429    6.0489 C   0  0  0  0  0  4           0  0  0
    2.2657    1.1063    0.6387 C   0  0  0  0  0  4           0  0  0
    2.2617    0.9553   -0.8518 C   0  0  0  0  0  4           0  0  0
    0.5214   -3.3986    6.7909 C   0  0  0  0  0  4           0  0  0
   -1.8382    0.6013    8.2991 C   0  0  0  0  0  4           0  0  0
  1 10  1  0     0  0
  2 11  1  0     0  0
  3 12  2  0     0  0
  4 19  2  0     0  0
  5 19  1  0     0  0
  6 13  1  0     0  0
  6 14  1  0     0  0
  6 20  1  0     0  0
  7 15  1  0     0  0
  7 23  1  0     0  0
  7 24  1  0     0  0
  8 16  1  0     0  0
  9 21  1  0     0  0
  9 22  1  0     0  0
 10 13  2  0     0  0
 10 15  1  0     0  0
 11 15  2  0     0  0
 11 16  1  0     0  0
 12 17  1  0     0  0
 12 18  1  0     0  0
 13 17  1  0     0  0
 14 18  2  0     0  0
 16 17  2  0     0  0
 18 19  1  0     0  0
 20 25  1  0     0  0
 20 26  1  0     0  0
 21 23  1  0     0  0
 21 27  1  0     0  0
 22 24  1  0     0  0
 22 28  1  0     0  0
 25 26  1  0     0  0
M  END
> <standard_type>
pIC50

> <# Confs.>
25

> <canonical_smiles>
OC(C1=CN(C2CC2)C3=C(F)C(N4C[C@H](C)N[C@H](C)C4)=C(F)C(N)=C3C1=O)=O

> <standard_relation>
=

> <Publication_ID>
nan

> <predicted_activity_value>
nan

> <actual_activity_value>
-1.255272505103306

> <Compound>
Sparfloxacin

> <standard_units>
uM

> hash
2214535980791073314

$$$$
49
XXILIB    08252103503D 0   0.00000     0.00000

 28 31  0     1  0            999 V2000
    1.1532   -0.2656    2.5599 F   0  0  0  0  0  1           0  0  0
   -3.0848    0.0330    4.6357 F   0  0  0  0  0  1           0  0  0
   -4.0252    0.3625   -0.3523 O   0  0  0  0  0  2           0  0  0
   -3.5483    0.5316   -3.1514 O   0  0  0  0  0  2           0  0  0
   -1.7441   -0.7898   -3.5925 O   0  0  0  0  0  2           0  0  0
    0.0000   -0.0000    0.0000 N   0  0  2  0  0  3           0  0  0
   -0.3060   -0.2036    4.9261 N   0  0  1  0  0  3           0  0  0
   -4.3435    0.1914    2.2939 N   0  0  0  0  0  3           0  0  0
    0.8081   -0.5442    7.5288 N   0  0  0  0  0  3           0  0  0
   -0.1781   -0.1103    2.4834 C   0  0  0  0  0  4           0  0  0
   -2.3029    0.0218    3.5411 C   0  0  0  0  0  4           0  0  0
   -2.8197    0.1791   -0.2274 C   0  0  0  0  0  4           0  0  0
   -0.7682    0.0000    1.2026 C   0  0  0  0  0  4           0  0  0
   -0.6388   -0.0492   -1.2225 C   0  0  0  0  0  4           0  0  0
   -0.9111   -0.0980    3.6871 C   0  0  0  0  0  4           0  0  0
   -2.9539    0.1286    2.2980 C   0  0  0  0  0  4           0  0  0
   -2.1758    0.1019    1.1251 C   0  0  0  0  0  4           0  0  0
   -1.9586    0.0211   -1.4379 C   0  0  0  0  0  4           0  0  0
   -2.5250   -0.0283   -2.7918 C   0  0  0  0  0  4           0  0  0
    1.4649    0.0000    0.0000 C   0  0  2  0  0  4           0  0  0
   -0.3413    0.3409    7.3399 C   0  0  1  0  0  4           0  0  0
    1.0178   -1.5688    6.5064 C   0  0  2  0  0  4           0  0  0
   -0.4618    0.8752    5.9058 C   0  0  0  0  0  4           0  0  0
    0.9017   -1.0199    5.0782 C   0  0  0  0  0  4           0  0  0
    2.2657    1.1063    0.6387 C   0  0  0  0  0  4           0  0  0
    2.2617    0.9553   -0.8518 C   0  0  0  0  0  4           0  0  0
   -1.6575   -0.2681    7.8333 C   0  0  0  0  0  4           0  0  0
    0.1473   -2.8120    6.7118 C   0  0  0  0  0  4           0  0  0
  1 10  1  0     0  0
  2 11  1  0     0  0
  3 12  2  0     0  0
  4 19  2  0     0  0
  5 19  1  0     0  0
  6 13  1  0     0  0
  6 14  1  0     0  0
  6 20  1  0     0  0
  7 15  1  0     0  0
  7 23  1  0     0  0
  7 24  1  0     0  0
  8 16  1  0     0  0
  9 21  1  0     0  0
  9 22  1  0     0  0
 10 13  2  0     0  0
 10 15  1  0     0  0
 11 15  2  0     0  0
 11 16  1  0     0  0
 12 17  1  0     0  0
 12 18  1  0     0  0
 13 17  1  0     0  0
 14 18  2  0     0  0
 16 17  2  0     0  0
 18 19  1  0     0  0
 20 25  1  0     0  0
 20 26  1  0     0  0
 21 23  1  0     0  0
 21 27  1  0     0  0
 22 24  1  0     0  0
 22 28  1  0     0  0
 25 26  1  0     0  0
M  END
> <standard_type>
pIC50

> <# Confs.>
25

> <canonical_smiles>
OC(C1=CN(C2CC2)C3=C(F)C(N4C[C@H](C)N[C@H](C)C4)=C(F)C(N)=C3C1=O)=O

> <standard_relation>
=

> <Publication_ID>
nan

> <predicted_activity_value>
nan

> <actual_activity_value>
-1.255272505103306

> <Compound>
Sparfloxacin

> <standard_units>
uM

> hash
2214535980791073314

$$$$
49
XXILIB    08252103503D 0   0.00000     0.00000

 28 31  0     1  0            999 V2000
    1.1532   -0.2656    2.5599 F   0  0  0  0  0  1           0  0  0
   -3.0848    0.0330    4.6357 F   0  0  0  0  0  1           0  0  0
   -4.0252    0.3625   -0.3523 O   0  0  0  0  0  2           0  0  0
   -2.0475   -0.6358   -3.7367 O   0  0  0  0  0  2           0  0  0
   -3.6629    0.7021   -2.8442 O   0  0  0  0  0  2           0  0  0
    0.0000   -0.0000    0.0000 N   0  0  2  0  0  3           0  0  0
   -0.3050   -0.2038    4.9281 N   0  0  1  0  0  3           0  0  0
   -4.3435    0.1914    2.2939 N   0  0  0  0  0  3           0  0  0
    1.0926   -0.4670    7.4066 N   0  0  0  0  0  3           0  0  0
   -0.1781   -0.1103    2.4834 C   0  0  0  0  0  4           0  0  0
   -2.3029    0.0218    3.5411 C   0  0  0  0  0  4           0  0  0
   -2.8197    0.1791   -0.2274 C   0  0  0  0  0  4           0  0  0
   -0.7682    0.0000    1.2026 C   0  0  0  0  0  4           0  0  0
   -0.6388   -0.0492   -1.2225 C   0  0  0  0  0  4           0  0  0
   -0.9111   -0.0980    3.6871 C   0  0  0  0  0  4           0  0  0
   -2.9539    0.1286    2.2980 C   0  0  0  0  0  4           0  0  0
   -2.1758    0.1019    1.1251 C   0  0  0  0  0  4           0  0  0
   -1.9586    0.0211   -1.4379 C   0  0  0  0  0  4           0  0  0
   -2.5250   -0.0283   -2.7918 C   0  0  0  0  0  4           0  0  0
    1.4649    0.0000    0.0000 C   0  0  2  0  0  4           0  0  0
    0.0660   -1.4466    7.0370 C   0  0  1  0  0  4           0  0  0
    0.7313    0.8613    6.9007 C   0  0  2  0  0  4           0  0  0
   -0.1037   -1.5355    5.5130 C   0  0  0  0  0  4           0  0  0
    0.6109    0.8549    5.3703 C   0  0  0  0  0  4           0  0  0
    2.2657    1.1063    0.6387 C   0  0  0  0  0  4           0  0  0
    2.2617    0.9553   -0.8518 C   0  0  0  0  0  4           0  0  0
    0.4480   -2.8084    7.6153 C   0  0  0  0  0  4           0  0  0
    1.7830    1.8704    7.3570 C   0  0  0  0  0  4           0  0  0
  1 10  1  0     0  0
  2 11  1  0     0  0
  3 12  2  0     0  0
  4 19  2  0     0  0
  5 19  1  0     0  0
  6 13  1  0     0  0
  6 14  1  0     0  0
  6 20  1  0     0  0
  7 15  1  0     0  0
  7 23  1  0     0  0
  7 24  1  0     0  0
  8 16  1  0     0  0
  9 21  1  0     0  0
  9 22  1  0     0  0
 10 13  2  0     0  0
 10 15  1  0     0  0
 11 15  2  0     0  0
 11 16  1  0     0  0
 12 17  1  0     0  0
 12 18  1  0     0  0
 13 17  1  0     0  0
 14 18  2  0     0  0
 16 17  2  0     0  0
 18 19  1  0     0  0
 20 25  1  0     0  0
 20 26  1  0     0  0
 21 23  1  0     0  0
 21 27  1  0     0  0
 22 24  1  0     0  0
 22 28  1  0     0  0
 25 26  1  0     0  0
M  END
> <standard_type>
pIC50

> <# Confs.>
25

> <canonical_smiles>
OC(C1=CN(C2CC2)C3=C(F)C(N4C[C@H](C)N[C@H](C)C4)=C(F)C(N)=C3C1=O)=O

> <standard_relation>
=

> <Publication_ID>
nan

> <predicted_activity_value>
nan

> <actual_activity_value>
-1.255272505103306

> <Compound>
Sparfloxacin

> <standard_units>
uM

> hash
2214535980791073314

$$$$
49
XXILIB    08252103503D 0   0.00000     0.00000

 28 31  0     1  0            999 V2000
    1.1532   -0.2656    2.5599 F   0  0  0  0  0  1           0  0  0
   -3.0848    0.0330    4.6357 F   0  0  0  0  0  1           0  0  0
   -4.0252    0.3625   -0.3523 O   0  0  0  0  0  2           0  0  0
   -3.6306   -0.4572   -3.0809 O   0  0  0  0  0  2           0  0  0
   -1.6390    0.4742   -3.6825 O   0  0  0  0  0  2           0  0  0
    0.0000   -0.0000    0.0000 N   0  0  2  0  0  3           0  0  0
   -0.3050   -0.2038    4.9281 N   0  0  1  0  0  3           0  0  0
   -4.3435    0.1914    2.2939 N   0  0  0  0  0  3           0  0  0
    0.7904   -0.4661    7.5543 N   0  0  0  0  0  3           0  0  0
   -0.1781   -0.1103    2.4834 C   0  0  0  0  0  4           0  0  0
   -2.3029    0.0218    3.5411 C   0  0  0  0  0  4           0  0  0
   -2.8197    0.1791   -0.2274 C   0  0  0  0  0  4           0  0  0
   -0.7682    0.0000    1.2026 C   0  0  0  0  0  4           0  0  0
   -0.6388   -0.0492   -1.2225 C   0  0  0  0  0  4           0  0  0
   -0.9111   -0.0980    3.6871 C   0  0  0  0  0  4           0  0  0
   -2.9539    0.1286    2.2980 C   0  0  0  0  0  4           0  0  0
   -2.1758    0.1019    1.1251 C   0  0  0  0  0  4           0  0  0
   -1.9586    0.0211   -1.4379 C   0  0  0  0  0  4           0  0  0
   -2.5250   -0.0283   -2.7918 C   0  0  0  0  0  4           0  0  0
    1.4649    0.0000    0.0000 C   0  0  2  0  0  4           0  0  0
    0.6503    0.8619    6.9484 C   0  0  1  0  0  4           0  0  0
    1.0969   -1.4637    6.5240 C   0  0  2  0  0  4           0  0  0
   -0.4707    0.8856    5.8987 C   0  0  0  0  0  4           0  0  0
   -0.0223   -1.5363    5.4758 C   0  0  0  0  0  4           0  0  0
    2.2657   -0.6387   -1.1063 C   0  0  0  0  0  4           0  0  0
    2.2617   -1.2532    0.2601 C   0  0  0  0  0  4           0  0  0
    0.3761    1.8841    8.0505 C   0  0  0  0  0  4           0  0  0
    1.3022   -2.8217    7.1919 C   0  0  0  0  0  4           0  0  0
  1 10  1  0     0  0
  2 11  1  0     0  0
  3 12  2  0     0  0
  4 19  2  0     0  0
  5 19  1  0     0  0
  6 13  1  0     0  0
  6 14  1  0     0  0
  6 20  1  0     0  0
  7 15  1  0     0  0
  7 23  1  0     0  0
  7 24  1  0     0  0
  8 16  1  0     0  0
  9 21  1  0     0  0
  9 22  1  0     0  0
 10 13  2  0     0  0
 10 15  1  0     0  0
 11 15  2  0     0  0
 11 16  1  0     0  0
 12 17  1  0     0  0
 12 18  1  0     0  0
 13 17  1  0     0  0
 14 18  2  0     0  0
 16 17  2  0     0  0
 18 19  1  0     0  0
 20 25  1  0     0  0
 20 26  1  0     0  0
 21 23  1  0     0  0
 21 27  1  0     0  0
 22 24  1  0     0  0
 22 28  1  0     0  0
 25 26  1  0     0  0
M  END
> <standard_type>
pIC50

> <# Confs.>
25

> <canonical_smiles>
OC(C1=CN(C2CC2)C3=C(F)C(N4C[C@H](C)N[C@H](C)C4)=C(F)C(N)=C3C1=O)=O

> <standard_relation>
=

> <Publication_ID>
nan

> <predicted_activity_value>
nan

> <actual_activity_value>
-1.255272505103306

> <Compound>
Sparfloxacin

> <standard_units>
uM

> hash
2214535980791073314

$$$$
49
XXILIB    08252103503D 0   0.00000     0.00000

 28 31  0     1  0            999 V2000
    1.1532   -0.2656    2.5599 F   0  0  0  0  0  1           0  0  0
   -3.0848    0.0330    4.6357 F   0  0  0  0  0  1           0  0  0
   -4.0252    0.3625   -0.3523 O   0  0  0  0  0  2           0  0  0
   -2.0475   -0.6358   -3.7367 O   0  0  0  0  0  2           0  0  0
   -3.6629    0.7021   -2.8442 O   0  0  0  0  0  2           0  0  0
    0.0000   -0.0000    0.0000 N   0  0  2  0  0  3           0  0  0
   -0.3060   -0.2036    4.9261 N   0  0  1  0  0  3           0  0  0
   -4.3435    0.1914    2.2939 N   0  0  0  0  0  3           0  0  0
    1.0701   -0.2976    7.4219 N   0  0  0  0  0  3           0  0  0
   -0.1781   -0.1103    2.4834 C   0  0  0  0  0  4           0  0  0
   -2.3029    0.0218    3.5411 C   0  0  0  0  0  4           0  0  0
   -2.8197    0.1791   -0.2274 C   0  0  0  0  0  4           0  0  0
   -0.7682    0.0000    1.2026 C   0  0  0  0  0  4           0  0  0
   -0.6388   -0.0492   -1.2225 C   0  0  0  0  0  4           0  0  0
   -0.9111   -0.0980    3.6871 C   0  0  0  0  0  4           0  0  0
   -2.9539    0.1286    2.2980 C   0  0  0  0  0  4           0  0  0
   -2.1758    0.1019    1.1251 C   0  0  0  0  0  4           0  0  0
   -1.9586    0.0211   -1.4379 C   0  0  0  0  0  4           0  0  0
   -2.5250   -0.0283   -2.7918 C   0  0  0  0  0  4           0  0  0
    1.4649    0.0000    0.0000 C   0  0  2  0  0  4           0  0  0
    1.5720   -1.0697    6.2851 C   0  0  1  0  0  4           0  0  0
    0.2075    0.8410    7.1075 C   0  0  2  0  0  4           0  0  0
    0.4863   -1.3935    5.2494 C   0  0  0  0  0  4           0  0  0
   -0.8774    0.5016    6.0768 C   0  0  0  0  0  4           0  0  0
    2.2657    1.1063    0.6387 C   0  0  0  0  0  4           0  0  0
    2.2617    0.9553   -0.8518 C   0  0  0  0  0  4           0  0  0
    2.8117   -0.4474    5.6352 C   0  0  0  0  0  4           0  0  0
    0.9888    2.0997    6.7194 C   0  0  0  0  0  4           0  0  0
  1 10  1  0     0  0
  2 11  1  0     0  0
  3 12  2  0     0  0
  4 19  2  0     0  0
  5 19  1  0     0  0
  6 13  1  0     0  0
  6 14  1  0     0  0
  6 20  1  0     0  0
  7 15  1  0     0  0
  7 23  1  0     0  0
  7 24  1  0     0  0
  8 16  1  0     0  0
  9 21  1  0     0  0
  9 22  1  0     0  0
 10 13  2  0     0  0
 10 15  1  0     0  0
 11 15  2  0     0  0
 11 16  1  0     0  0
 12 17  1  0     0  0
 12 18  1  0     0  0
 13 17  1  0     0  0
 14 18  2  0     0  0
 16 17  2  0     0  0
 18 19  1  0     0  0
 20 25  1  0     0  0
 20 26  1  0     0  0
 21 23  1  0     0  0
 21 27  1  0     0  0
 22 24  1  0     0  0
 22 28  1  0     0  0
 25 26  1  0     0  0
M  END
> <standard_type>
pIC50

> <# Confs.>
25

> <canonical_smiles>
OC(C1=CN(C2CC2)C3=C(F)C(N4C[C@H](C)N[C@H](C)C4)=C(F)C(N)=C3C1=O)=O

> <standard_relation>
=

> <Publication_ID>
nan

> <predicted_activity_value>
nan

> <actual_activity_value>
-1.255272505103306

> <Compound>
Sparfloxacin

> <standard_units>
uM

> hash
2214535980791073314

$$$$
49
XXILIB    08252103503D 0   0.00000     0.00000

 28 31  0     1  0            999 V2000
    1.1532   -0.2656    2.5599 F   0  0  0  0  0  1           0  0  0
   -3.0848    0.0330    4.6357 F   0  0  0  0  0  1           0  0  0
   -4.0252    0.3625   -0.3523 O   0  0  0  0  0  2           0  0  0
   -2.0475   -0.6358   -3.7367 O   0  0  0  0  0  2           0  0  0
   -3.6629    0.7021   -2.8442 O   0  0  0  0  0  2           0  0  0
    0.0000   -0.0000    0.0000 N   0  0  2  0  0  3           0  0  0
   -0.3060   -0.2036    4.9261 N   0  0  1  0  0  3           0  0  0
   -4.3435    0.1914    2.2939 N   0  0  0  0  0  3           0  0  0
    0.8081   -0.5442    7.5288 N   0  0  0  0  0  3           0  0  0
   -0.1781   -0.1103    2.4834 C   0  0  0  0  0  4           0  0  0
   -2.3029    0.0218    3.5411 C   0  0  0  0  0  4           0  0  0
   -2.8197    0.1791   -0.2274 C   0  0  0  0  0  4           0  0  0
   -0.7682    0.0000    1.2026 C   0  0  0  0  0  4           0  0  0
   -0.6388   -0.0492   -1.2225 C   0  0  0  0  0  4           0  0  0
   -0.9111   -0.0980    3.6871 C   0  0  0  0  0  4           0  0  0
   -2.9539    0.1286    2.2980 C   0  0  0  0  0  4           0  0  0
   -2.1758    0.1019    1.1251 C   0  0  0  0  0  4           0  0  0
   -1.9586    0.0211   -1.4379 C   0  0  0  0  0  4           0  0  0
   -2.5250   -0.0283   -2.7918 C   0  0  0  0  0  4           0  0  0
    1.4649    0.0000    0.0000 C   0  0  2  0  0  4           0  0  0
   -0.3413    0.3409    7.3399 C   0  0  1  0  0  4           0  0  0
    1.0178   -1.5688    6.5064 C   0  0  2  0  0  4           0  0  0
   -0.4618    0.8752    5.9058 C   0  0  0  0  0  4           0  0  0
    0.9017   -1.0199    5.0782 C   0  0  0  0  0  4           0  0  0
    2.2657    1.1063    0.6387 C   0  0  0  0  0  4           0  0  0
    2.2617    0.9553   -0.8518 C   0  0  0  0  0  4           0  0  0
   -1.6575   -0.2681    7.8333 C   0  0  0  0  0  4           0  0  0
    0.1473   -2.8120    6.7118 C   0  0  0  0  0  4           0  0  0
  1 10  1  0     0  0
  2 11  1  0     0  0
  3 12  2  0     0  0
  4 19  2  0     0  0
  5 19  1  0     0  0
  6 13  1  0     0  0
  6 14  1  0     0  0
  6 20  1  0     0  0
  7 15  1  0     0  0
  7 23  1  0     0  0
  7 24  1  0     0  0
  8 16  1  0     0  0
  9 21  1  0     0  0
  9 22  1  0     0  0
 10 13  2  0     0  0
 10 15  1  0     0  0
 11 15  2  0     0  0
 11 16  1  0     0  0
 12 17  1  0     0  0
 12 18  1  0     0  0
 13 17  1  0     0  0
 14 18  2  0     0  0
 16 17  2  0     0  0
 18 19  1  0     0  0
 20 25  1  0     0  0
 20 26  1  0     0  0
 21 23  1  0     0  0
 21 27  1  0     0  0
 22 24  1  0     0  0
 22 28  1  0     0  0
 25 26  1  0     0  0
M  END
> <standard_type>
pIC50

> <# Confs.>
25

> <canonical_smiles>
OC(C1=CN(C2CC2)C3=C(F)C(N4C[C@H](C)N[C@H](C)C4)=C(F)C(N)=C3C1=O)=O

> <standard_relation>
=

> <Publication_ID>
nan

> <predicted_activity_value>
nan

> <actual_activity_value>
-1.255272505103306

> <Compound>
Sparfloxacin

> <standard_units>
uM

> hash
2214535980791073314

$$$$
49
XXILIB    08252103503D 0   0.00000     0.00000

 28 31  0     1  0            999 V2000
    1.1532   -0.2656    2.5599 F   0  0  0  0  0  1           0  0  0
   -3.0848    0.0330    4.6357 F   0  0  0  0  0  1           0  0  0
   -4.0252    0.3625   -0.3523 O   0  0  0  0  0  2           0  0  0
   -1.9651    0.3530   -3.8071 O   0  0  0  0  0  2           0  0  0
   -3.7679   -0.5619   -2.7542 O   0  0  0  0  0  2           0  0  0
    0.0000   -0.0000    0.0000 N   0  0  2  0  0  3           0  0  0
   -0.3050   -0.2038    4.9281 N   0  0  1  0  0  3           0  0  0
   -4.3435    0.1914    2.2939 N   0  0  0  0  0  3           0  0  0
    0.7904   -0.4661    7.5543 N   0  0  0  0  0  3           0  0  0
   -0.1781   -0.1103    2.4834 C   0  0  0  0  0  4           0  0  0
   -2.3029    0.0218    3.5411 C   0  0  0  0  0  4           0  0  0
   -2.8197    0.1791   -0.2274 C   0  0  0  0  0  4           0  0  0
   -0.7682    0.0000    1.2026 C   0  0  0  0  0  4           0  0  0
   -0.6388   -0.0492   -1.2225 C   0  0  0  0  0  4           0  0  0
   -0.9111   -0.0980    3.6871 C   0  0  0  0  0  4           0  0  0
   -2.9539    0.1286    2.2980 C   0  0  0  0  0  4           0  0  0
   -2.1758    0.1019    1.1251 C   0  0  0  0  0  4           0  0  0
   -1.9586    0.0211   -1.4379 C   0  0  0  0  0  4           0  0  0
   -2.5250   -0.0283   -2.7918 C   0  0  0  0  0  4           0  0  0
    1.4649    0.0000    0.0000 C   0  0  2  0  0  4           0  0  0
    0.6503    0.8619    6.9484 C   0  0  1  0  0  4           0  0  0
    1.0969   -1.4637    6.5240 C   0  0  2  0  0  4           0  0  0
   -0.4707    0.8856    5.8987 C   0  0  0  0  0  4           0  0  0
   -0.0223   -1.5363    5.4758 C   0  0  0  0  0  4           0  0  0
    2.2657   -0.6387   -1.1063 C   0  0  0  0  0  4           0  0  0
    2.2617   -1.2532    0.2601 C   0  0  0  0  0  4           0  0  0
    0.3761    1.8841    8.0505 C   0  0  0  0  0  4           0  0  0
    1.3022   -2.8217    7.1919 C   0  0  0  0  0  4           0  0  0
  1 10  1  0     0  0
  2 11  1  0     0  0
  3 12  2  0     0  0
  4 19  2  0     0  0
  5 19  1  0     0  0
  6 13  1  0     0  0
  6 14  1  0     0  0
  6 20  1  0     0  0
  7 15  1  0     0  0
  7 23  1  0     0  0
  7 24  1  0     0  0
  8 16  1  0     0  0
  9 21  1  0     0  0
  9 22  1  0     0  0
 10 13  2  0     0  0
 10 15  1  0     0  0
 11 15  2  0     0  0
 11 16  1  0     0  0
 12 17  1  0     0  0
 12 18  1  0     0  0
 13 17  1  0     0  0
 14 18  2  0     0  0
 16 17  2  0     0  0
 18 19  1  0     0  0
 20 25  1  0     0  0
 20 26  1  0     0  0
 21 23  1  0     0  0
 21 27  1  0     0  0
 22 24  1  0     0  0
 22 28  1  0     0  0
 25 26  1  0     0  0
M  END
> <standard_type>
pIC50

> <# Confs.>
25

> <canonical_smiles>
OC(C1=CN(C2CC2)C3=C(F)C(N4C[C@H](C)N[C@H](C)C4)=C(F)C(N)=C3C1=O)=O

> <standard_relation>
=

> <Publication_ID>
nan

> <predicted_activity_value>
nan

> <actual_activity_value>
-1.255272505103306

> <Compound>
Sparfloxacin

> <standard_units>
uM

> hash
2214535980791073314

$$$$
49
XXILIB    08252103503D 0   0.00000     0.00000

 28 31  0     1  0            999 V2000
    1.1532   -0.2656    2.5599 F   0  0  0  0  0  1           0  0  0
   -3.0848    0.0330    4.6357 F   0  0  0  0  0  1           0  0  0
   -4.0252    0.3625   -0.3523 O   0  0  0  0  0  2           0  0  0
   -3.6306   -0.4572   -3.0809 O   0  0  0  0  0  2           0  0  0
   -1.6390    0.4742   -3.6825 O   0  0  0  0  0  2           0  0  0
    0.0000   -0.0000    0.0000 N   0  0  2  0  0  3           0  0  0
   -0.3097   -0.2030    4.9184 N   0  0  1  0  0  3           0  0  0
   -4.3435    0.1914    2.2939 N   0  0  0  0  0  3           0  0  0
    2.0111    0.6515    6.3187 N   0  0  0  0  0  3           0  0  0
   -0.1781   -0.1103    2.4834 C   0  0  0  0  0  4           0  0  0
   -2.3029    0.0218    3.5411 C   0  0  0  0  0  4           0  0  0
   -2.8197    0.1791   -0.2274 C   0  0  0  0  0  4           0  0  0
   -0.7682    0.0000    1.2026 C   0  0  0  0  0  4           0  0  0
   -0.6388   -0.0492   -1.2225 C   0  0  0  0  0  4           0  0  0
   -0.9111   -0.0980    3.6871 C   0  0  0  0  0  4           0  0  0
   -2.9539    0.1286    2.2980 C   0  0  0  0  0  4           0  0  0
   -2.1758    0.1019    1.1251 C   0  0  0  0  0  4           0  0  0
   -1.9586    0.0211   -1.4379 C   0  0  0  0  0  4           0  0  0
   -2.5250   -0.0283   -2.7918 C   0  0  0  0  0  4           0  0  0
    1.4649    0.0000    0.0000 C   0  0  2  0  0  4           0  0  0
    0.9099    1.5890    6.0378 C   0  0  1  0  0  4           0  0  0
    2.0931   -0.4054    5.2955 C   0  0  2  0  0  4           0  0  0
   -0.4331    0.8456    5.9341 C   0  0  0  0  0  4           0  0  0
    0.7615   -1.1675    5.1802 C   0  0  0  0  0  4           0  0  0
    2.2657   -0.6387   -1.1063 C   0  0  0  0  0  4           0  0  0
    2.2617   -1.2532    0.2601 C   0  0  0  0  0  4           0  0  0
    0.8592    2.6436    7.1410 C   0  0  0  0  0  4           0  0  0
    3.2304   -1.3583    5.6565 C   0  0  0  0  0  4           0  0  0
  1 10  1  0     0  0
  2 11  1  0     0  0
  3 12  2  0     0  0
  4 19  2  0     0  0
  5 19  1  0     0  0
  6 13  1  0     0  0
  6 14  1  0     0  0
  6 20  1  0     0  0
  7 15  1  0     0  0
  7 23  1  0     0  0
  7 24  1  0     0  0
  8 16  1  0     0  0
  9 21  1  0     0  0
  9 22  1  0     0  0
 10 13  2  0     0  0
 10 15  1  0     0  0
 11 15  2  0     0  0
 11 16  1  0     0  0
 12 17  1  0     0  0
 12 18  1  0     0  0
 13 17  1  0     0  0
 14 18  2  0     0  0
 16 17  2  0     0  0
 18 19  1  0     0  0
 20 25  1  0     0  0
 20 26  1  0     0  0
 21 23  1  0     0  0
 21 27  1  0     0  0
 22 24  1  0     0  0
 22 28  1  0     0  0
 25 26  1  0     0  0
M  END
> <standard_type>
pIC50

> <# Confs.>
25

> <canonical_smiles>
OC(C1=CN(C2CC2)C3=C(F)C(N4C[C@H](C)N[C@H](C)C4)=C(F)C(N)=C3C1=O)=O

> <standard_relation>
=

> <Publication_ID>
nan

> <predicted_activity_value>
nan

> <actual_activity_value>
-1.255272505103306

> <Compound>
Sparfloxacin

> <standard_units>
uM

> hash
2214535980791073314

$$$$
49
XXILIB    08252103503D 0   0.00000     0.00000

 28 31  0     1  0            999 V2000
    1.1532   -0.2656    2.5599 F   0  0  0  0  0  1           0  0  0
   -3.0848    0.0330    4.6357 F   0  0  0  0  0  1           0  0  0
   -4.0252    0.3625   -0.3523 O   0  0  0  0  0  2           0  0  0
   -3.3262   -0.8568   -3.1937 O   0  0  0  0  0  2           0  0  0
   -2.0283    0.9851   -3.5383 O   0  0  0  0  0  2           0  0  0
    0.0000   -0.0000    0.0000 N   0  0  2  0  0  3           0  0  0
   -0.3085   -0.2032    4.9209 N   0  0  1  0  0  3           0  0  0
   -4.3435    0.1914    2.2939 N   0  0  0  0  0  3           0  0  0
    1.3495   -0.2734    7.3026 N   0  0  0  0  0  3           0  0  0
   -0.1781   -0.1103    2.4834 C   0  0  0  0  0  4           0  0  0
   -2.3029    0.0218    3.5411 C   0  0  0  0  0  4           0  0  0
   -2.8197    0.1791   -0.2274 C   0  0  0  0  0  4           0  0  0
   -0.7682    0.0000    1.2026 C   0  0  0  0  0  4           0  0  0
   -0.6388   -0.0492   -1.2225 C   0  0  0  0  0  4           0  0  0
   -0.9111   -0.0980    3.6871 C   0  0  0  0  0  4           0  0  0
   -2.9539    0.1286    2.2980 C   0  0  0  0  0  4           0  0  0
   -2.1758    0.1019    1.1251 C   0  0  0  0  0  4           0  0  0
   -1.9586    0.0211   -1.4379 C   0  0  0  0  0  4           0  0  0
   -2.5250   -0.0283   -2.7918 C   0  0  0  0  0  4           0  0  0
    1.4649    0.0000    0.0000 C   0  0  2  0  0  4           0  0  0
    0.7019   -1.4764    6.7757 C   0  0  1  0  0  4           0  0  0
    0.7968    0.9844    6.7816 C   0  0  2  0  0  4           0  0  0
    0.4862   -1.3864    5.2580 C   0  0  0  0  0  4           0  0  0
   -0.4920    0.8150    5.9553 C   0  0  0  0  0  4           0  0  0
    2.2657    1.1063    0.6387 C   0  0  0  0  0  4           0  0  0
    2.2617    0.9553   -0.8518 C   0  0  0  0  0  4           0  0  0
    1.5427   -2.7030    7.1297 C   0  0  0  0  0  4           0  0  0
    1.8701    1.7358    5.9830 C   0  0  0  0  0  4           0  0  0
  1 10  1  0     0  0
  2 11  1  0     0  0
  3 12  2  0     0  0
  4 19  2  0     0  0
  5 19  1  0     0  0
  6 13  1  0     0  0
  6 14  1  0     0  0
  6 20  1  0     0  0
  7 15  1  0     0  0
  7 23  1  0     0  0
  7 24  1  0     0  0
  8 16  1  0     0  0
  9 21  1  0     0  0
  9 22  1  0     0  0
 10 13  2  0     0  0
 10 15  1  0     0  0
 11 15  2  0     0  0
 11 16  1  0     0  0
 12 17  1  0     0  0
 12 18  1  0     0  0
 13 17  1  0     0  0
 14 18  2  0     0  0
 16 17  2  0     0  0
 18 19  1  0     0  0
 20 25  1  0     0  0
 20 26  1  0     0  0
 21 23  1  0     0  0
 21 27  1  0     0  0
 22 24  1  0     0  0
 22 28  1  0     0  0
 25 26  1  0     0  0
M  END
> <standard_type>
pIC50

> <# Confs.>
25

> <canonical_smiles>
OC(C1=CN(C2CC2)C3=C(F)C(N4C[C@H](C)N[C@H](C)C4)=C(F)C(N)=C3C1=O)=O

> <standard_relation>
=

> <Publication_ID>
nan

> <predicted_activity_value>
nan

> <actual_activity_value>
-1.255272505103306

> <Compound>
Sparfloxacin

> <standard_units>
uM

> hash
2214535980791073314

$$$$
49
XXILIB    08252103503D 0   0.00000     0.00000

 28 31  0     1  0            999 V2000
    1.1532   -0.2656    2.5599 F   0  0  0  0  0  1           0  0  0
   -3.0848    0.0330    4.6357 F   0  0  0  0  0  1           0  0  0
   -4.0252    0.3625   -0.3523 O   0  0  0  0  0  2           0  0  0
   -3.5483    0.5316   -3.1514 O   0  0  0  0  0  2           0  0  0
   -1.7441   -0.7898   -3.5925 O   0  0  0  0  0  2           0  0  0
    0.0000   -0.0000    0.0000 N   0  0  2  0  0  3           0  0  0
   -0.3050   -0.2038    4.9281 N   0  0  1  0  0  3           0  0  0
   -4.3435    0.1914    2.2939 N   0  0  0  0  0  3           0  0  0
    1.0926   -0.4670    7.4066 N   0  0  0  0  0  3           0  0  0
   -0.1781   -0.1103    2.4834 C   0  0  0  0  0  4           0  0  0
   -2.3029    0.0218    3.5411 C   0  0  0  0  0  4           0  0  0
   -2.8197    0.1791   -0.2274 C   0  0  0  0  0  4           0  0  0
   -0.7682    0.0000    1.2026 C   0  0  0  0  0  4           0  0  0
   -0.6388   -0.0492   -1.2225 C   0  0  0  0  0  4           0  0  0
   -0.9111   -0.0980    3.6871 C   0  0  0  0  0  4           0  0  0
   -2.9539    0.1286    2.2980 C   0  0  0  0  0  4           0  0  0
   -2.1758    0.1019    1.1251 C   0  0  0  0  0  4           0  0  0
   -1.9586    0.0211   -1.4379 C   0  0  0  0  0  4           0  0  0
   -2.5250   -0.0283   -2.7918 C   0  0  0  0  0  4           0  0  0
    1.4649    0.0000    0.0000 C   0  0  2  0  0  4           0  0  0
    0.0660   -1.4466    7.0370 C   0  0  1  0  0  4           0  0  0
    0.7313    0.8613    6.9007 C   0  0  2  0  0  4           0  0  0
   -0.1037   -1.5355    5.5130 C   0  0  0  0  0  4           0  0  0
    0.6109    0.8549    5.3703 C   0  0  0  0  0  4           0  0  0
    2.2657   -0.6387   -1.1063 C   0  0  0  0  0  4           0  0  0
    2.2617   -1.2532    0.2601 C   0  0  0  0  0  4           0  0  0
    0.4480   -2.8084    7.6153 C   0  0  0  0  0  4           0  0  0
    1.7830    1.8704    7.3570 C   0  0  0  0  0  4           0  0  0
  1 10  1  0     0  0
  2 11  1  0     0  0
  3 12  2  0     0  0
  4 19  2  0     0  0
  5 19  1  0     0  0
  6 13  1  0     0  0
  6 14  1  0     0  0
  6 20  1  0     0  0
  7 15  1  0     0  0
  7 23  1  0     0  0
  7 24  1  0     0  0
  8 16  1  0     0  0
  9 21  1  0     0  0
  9 22  1  0     0  0
 10 13  2  0     0  0
 10 15  1  0     0  0
 11 15  2  0     0  0
 11 16  1  0     0  0
 12 17  1  0     0  0
 12 18  1  0     0  0
 13 17  1  0     0  0
 14 18  2  0     0  0
 16 17  2  0     0  0
 18 19  1  0     0  0
 20 25  1  0     0  0
 20 26  1  0     0  0
 21 23  1  0     0  0
 21 27  1  0     0  0
 22 24  1  0     0  0
 22 28  1  0     0  0
 25 26  1  0     0  0
M  END
> <standard_type>
pIC50

> <# Confs.>
25

> <canonical_smiles>
OC(C1=CN(C2CC2)C3=C(F)C(N4C[C@H](C)N[C@H](C)C4)=C(F)C(N)=C3C1=O)=O

> <standard_relation>
=

> <Publication_ID>
nan

> <predicted_activity_value>
nan

> <actual_activity_value>
-1.255272505103306

> <Compound>
Sparfloxacin

> <standard_units>
uM

> hash
2214535980791073314

$$$$
49
XXILIB    08252103503D 0   0.00000     0.00000

 28 31  0     1  0            999 V2000
    1.1532   -0.2656    2.5599 F   0  0  0  0  0  1           0  0  0
   -3.0848    0.0330    4.6357 F   0  0  0  0  0  1           0  0  0
   -4.0252    0.3625   -0.3523 O   0  0  0  0  0  2           0  0  0
   -3.6306   -0.4572   -3.0809 O   0  0  0  0  0  2           0  0  0
   -1.6390    0.4742   -3.6825 O   0  0  0  0  0  2           0  0  0
    0.0000   -0.0000    0.0000 N   0  0  2  0  0  3           0  0  0
   -0.3097   -0.2030    4.9184 N   0  0  1  0  0  3           0  0  0
   -4.3435    0.1914    2.2939 N   0  0  0  0  0  3           0  0  0
   -0.7010   -1.3942    7.4690 N   0  0  0  0  0  3           0  0  0
   -0.1781   -0.1103    2.4834 C   0  0  0  0  0  4           0  0  0
   -2.3029    0.0218    3.5411 C   0  0  0  0  0  4           0  0  0
   -2.8197    0.1791   -0.2274 C   0  0  0  0  0  4           0  0  0
   -0.7682    0.0000    1.2026 C   0  0  0  0  0  4           0  0  0
   -0.6388   -0.0492   -1.2225 C   0  0  0  0  0  4           0  0  0
   -0.9111   -0.0980    3.6871 C   0  0  0  0  0  4           0  0  0
   -2.9539    0.1286    2.2980 C   0  0  0  0  0  4           0  0  0
   -2.1758    0.1019    1.1251 C   0  0  0  0  0  4           0  0  0
   -1.9586    0.0211   -1.4379 C   0  0  0  0  0  4           0  0  0
   -2.5250   -0.0283   -2.7918 C   0  0  0  0  0  4           0  0  0
    1.4649    0.0000    0.0000 C   0  0  2  0  0  4           0  0  0
   -0.3044   -2.2087    6.3071 C   0  0  1  0  0  4           0  0  0
   -1.4832   -0.2151    7.0584 C   0  0  2  0  0  4           0  0  0
    0.4928   -1.3700    5.2931 C   0  0  0  0  0  4           0  0  0
   -0.7010    0.6429    6.0489 C   0  0  0  0  0  4           0  0  0
    2.2657   -0.6387   -1.1063 C   0  0  0  0  0  4           0  0  0
    2.2617   -1.2532    0.2601 C   0  0  0  0  0  4           0  0  0
    0.5214   -3.3986    6.7909 C   0  0  0  0  0  4           0  0  0
   -1.8382    0.6013    8.2991 C   0  0  0  0  0  4           0  0  0
  1 10  1  0     0  0
  2 11  1  0     0  0
  3 12  2  0     0  0
  4 19  2  0     0  0
  5 19  1  0     0  0
  6 13  1  0     0  0
  6 14  1  0     0  0
  6 20  1  0     0  0
  7 15  1  0     0  0
  7 23  1  0     0  0
  7 24  1  0     0  0
  8 16  1  0     0  0
  9 21  1  0     0  0
  9 22  1  0     0  0
 10 13  2  0     0  0
 10 15  1  0     0  0
 11 15  2  0     0  0
 11 16  1  0     0  0
 12 17  1  0     0  0
 12 18  1  0     0  0
 13 17  1  0     0  0
 14 18  2  0     0  0
 16 17  2  0     0  0
 18 19  1  0     0  0
 20 25  1  0     0  0
 20 26  1  0     0  0
 21 23  1  0     0  0
 21 27  1  0     0  0
 22 24  1  0     0  0
 22 28  1  0     0  0
 25 26  1  0     0  0
M  END
> <standard_type>
pIC50

> <# Confs.>
25

> <canonical_smiles>
OC(C1=CN(C2CC2)C3=C(F)C(N4C[C@H](C)N[C@H](C)C4)=C(F)C(N)=C3C1=O)=O

> <standard_relation>
=

> <Publication_ID>
nan

> <predicted_activity_value>
nan

> <actual_activity_value>
-1.255272505103306

> <Compound>
Sparfloxacin

> <standard_units>
uM

> hash
2214535980791073314

$$$$
49
XXILIB    08252103503D 0   0.00000     0.00000

 28 31  0     1  0            999 V2000
    1.1532   -0.2656    2.5599 F   0  0  0  0  0  1           0  0  0
   -3.0848    0.0330    4.6357 F   0  0  0  0  0  1           0  0  0
   -4.0252    0.3625   -0.3523 O   0  0  0  0  0  2           0  0  0
   -3.6306   -0.4572   -3.0809 O   0  0  0  0  0  2           0  0  0
   -1.6390    0.4742   -3.6825 O   0  0  0  0  0  2           0  0  0
    0.0000   -0.0000    0.0000 N   0  0  2  0  0  3           0  0  0
   -0.3097   -0.2030    4.9184 N   0  0  1  0  0  3           0  0  0
   -4.3435    0.1914    2.2939 N   0  0  0  0  0  3           0  0  0
    2.0887   -1.1300    6.1290 N   0  0  0  0  0  3           0  0  0
   -0.1781   -0.1103    2.4834 C   0  0  0  0  0  4           0  0  0
   -2.3029    0.0218    3.5411 C   0  0  0  0  0  4           0  0  0
   -2.8197    0.1791   -0.2274 C   0  0  0  0  0  4           0  0  0
   -0.7682    0.0000    1.2026 C   0  0  0  0  0  4           0  0  0
   -0.6388   -0.0492   -1.2225 C   0  0  0  0  0  4           0  0  0
   -0.9111   -0.0980    3.6871 C   0  0  0  0  0  4           0  0  0
   -2.9539    0.1286    2.2980 C   0  0  0  0  0  4           0  0  0
   -2.1758    0.1019    1.1251 C   0  0  0  0  0  4           0  0  0
   -1.9586    0.0211   -1.4379 C   0  0  0  0  0  4           0  0  0
   -2.5250   -0.0283   -2.7918 C   0  0  0  0  0  4           0  0  0
    1.4649    0.0000    0.0000 C   0  0  2  0  0  4           0  0  0
    2.0707    0.1175    5.3454 C   0  0  1  0  0  4           0  0  0
    1.0669   -2.0793    5.6540 C   0  0  2  0  0  4           0  0  0
    0.6791    0.7723    5.3847 C   0  0  0  0  0  4           0  0  0
   -0.3352   -1.4469    5.6921 C   0  0  0  0  0  4           0  0  0
    2.2657    1.1063    0.6387 C   0  0  0  0  0  4           0  0  0
    2.2617    0.9553   -0.8518 C   0  0  0  0  0  4           0  0  0
    3.1304    1.0683    5.8974 C   0  0  0  0  0  4           0  0  0
    1.1156   -3.3355    6.5208 C   0  0  0  0  0  4           0  0  0
  1 10  1  0     0  0
  2 11  1  0     0  0
  3 12  2  0     0  0
  4 19  2  0     0  0
  5 19  1  0     0  0
  6 13  1  0     0  0
  6 14  1  0     0  0
  6 20  1  0     0  0
  7 15  1  0     0  0
  7 23  1  0     0  0
  7 24  1  0     0  0
  8 16  1  0     0  0
  9 21  1  0     0  0
  9 22  1  0     0  0
 10 13  2  0     0  0
 10 15  1  0     0  0
 11 15  2  0     0  0
 11 16  1  0     0  0
 12 17  1  0     0  0
 12 18  1  0     0  0
 13 17  1  0     0  0
 14 18  2  0     0  0
 16 17  2  0     0  0
 18 19  1  0     0  0
 20 25  1  0     0  0
 20 26  1  0     0  0
 21 23  1  0     0  0
 21 27  1  0     0  0
 22 24  1  0     0  0
 22 28  1  0     0  0
 25 26  1  0     0  0
M  END
> <standard_type>
pIC50

> <# Confs.>
25

> <canonical_smiles>
OC(C1=CN(C2CC2)C3=C(F)C(N4C[C@H](C)N[C@H](C)C4)=C(F)C(N)=C3C1=O)=O

> <standard_relation>
=

> <Publication_ID>
nan

> <predicted_activity_value>
nan

> <actual_activity_value>
-1.255272505103306

> <Compound>
Sparfloxacin

> <standard_units>
uM

> hash
2214535980791073314

$$$$
49
XXILIB    08252103503D 0   0.00000     0.00000

 28 31  0     1  0            999 V2000
    1.1532   -0.2656    2.5599 F   0  0  0  0  0  1           0  0  0
   -3.0848    0.0330    4.6357 F   0  0  0  0  0  1           0  0  0
   -4.0252    0.3625   -0.3523 O   0  0  0  0  0  2           0  0  0
   -3.6306   -0.4572   -3.0809 O   0  0  0  0  0  2           0  0  0
   -1.6390    0.4742   -3.6825 O   0  0  0  0  0  2           0  0  0
    0.0000   -0.0000    0.0000 N   0  0  2  0  0  3           0  0  0
   -0.3097   -0.2030    4.9184 N   0  0  1  0  0  3           0  0  0
   -4.3435    0.1914    2.2939 N   0  0  0  0  0  3           0  0  0
   -0.7785    0.3874    7.6587 N   0  0  0  0  0  3           0  0  0
   -0.1781   -0.1103    2.4834 C   0  0  0  0  0  4           0  0  0
   -2.3029    0.0218    3.5411 C   0  0  0  0  0  4           0  0  0
   -2.8197    0.1791   -0.2274 C   0  0  0  0  0  4           0  0  0
   -0.7682    0.0000    1.2026 C   0  0  0  0  0  4           0  0  0
   -0.6388   -0.0492   -1.2225 C   0  0  0  0  0  4           0  0  0
   -0.9111   -0.0980    3.6871 C   0  0  0  0  0  4           0  0  0
   -2.9539    0.1286    2.2980 C   0  0  0  0  0  4           0  0  0
   -2.1758    0.1019    1.1251 C   0  0  0  0  0  4           0  0  0
   -1.9586    0.0211   -1.4379 C   0  0  0  0  0  4           0  0  0
   -2.5250   -0.0283   -2.7918 C   0  0  0  0  0  4           0  0  0
    1.4649    0.0000    0.0000 C   0  0  2  0  0  4           0  0  0
   -1.4652   -0.7372    6.9995 C   0  0  1  0  0  4           0  0  0
   -0.4570    1.4588    6.6999 C   0  0  2  0  0  4           0  0  0
   -0.6194   -1.2968    5.8425 C   0  0  0  0  0  4           0  0  0
    0.3957    0.9223    5.5370 C   0  0  0  0  0  4           0  0  0
    2.2657    1.1063    0.6387 C   0  0  0  0  0  4           0  0  0
    2.2617    0.9553   -0.8518 C   0  0  0  0  0  4           0  0  0
   -1.7498   -1.8233    8.0345 C   0  0  0  0  0  4           0  0  0
    0.2766    2.5785    7.4347 C   0  0  0  0  0  4           0  0  0
  1 10  1  0     0  0
  2 11  1  0     0  0
  3 12  2  0     0  0
  4 19  2  0     0  0
  5 19  1  0     0  0
  6 13  1  0     0  0
  6 14  1  0     0  0
  6 20  1  0     0  0
  7 15  1  0     0  0
  7 23  1  0     0  0
  7 24  1  0     0  0
  8 16  1  0     0  0
  9 21  1  0     0  0
  9 22  1  0     0  0
 10 13  2  0     0  0
 10 15  1  0     0  0
 11 15  2  0     0  0
 11 16  1  0     0  0
 12 17  1  0     0  0
 12 18  1  0     0  0
 13 17  1  0     0  0
 14 18  2  0     0  0
 16 17  2  0     0  0
 18 19  1  0     0  0
 20 25  1  0     0  0
 20 26  1  0     0  0
 21 23  1  0     0  0
 21 27  1  0     0  0
 22 24  1  0     0  0
 22 28  1  0     0  0
 25 26  1  0     0  0
M  END
> <standard_type>
pIC50

> <# Confs.>
25

> <canonical_smiles>
OC(C1=CN(C2CC2)C3=C(F)C(N4C[C@H](C)N[C@H](C)C4)=C(F)C(N)=C3C1=O)=O

> <standard_relation>
=

> <Publication_ID>
nan

> <predicted_activity_value>
nan

> <actual_activity_value>
-1.255272505103306

> <Compound>
Sparfloxacin

> <standard_units>
uM

> hash
2214535980791073314

$$$$
49
XXILIB    08252103503D 0   0.00000     0.00000

 28 31  0     1  0            999 V2000
    1.1532   -0.2656    2.5599 F   0  0  0  0  0  1           0  0  0
   -3.0848    0.0330    4.6357 F   0  0  0  0  0  1           0  0  0
   -4.0252    0.3625   -0.3523 O   0  0  0  0  0  2           0  0  0
   -3.5483    0.5316   -3.1514 O   0  0  0  0  0  2           0  0  0
   -1.7441   -0.7898   -3.5925 O   0  0  0  0  0  2           0  0  0
    0.0000   -0.0000    0.0000 N   0  0  2  0  0  3           0  0  0
   -0.3085   -0.2032    4.9209 N   0  0  1  0  0  3           0  0  0
   -4.3435    0.1914    2.2939 N   0  0  0  0  0  3           0  0  0
    1.2503   -0.7316    7.3120 N   0  0  0  0  0  3           0  0  0
   -0.1781   -0.1103    2.4834 C   0  0  0  0  0  4           0  0  0
   -2.3029    0.0218    3.5411 C   0  0  0  0  0  4           0  0  0
   -2.8197    0.1791   -0.2274 C   0  0  0  0  0  4           0  0  0
   -0.7682    0.0000    1.2026 C   0  0  0  0  0  4           0  0  0
   -0.6388   -0.0492   -1.2225 C   0  0  0  0  0  4           0  0  0
   -0.9111   -0.0980    3.6871 C   0  0  0  0  0  4           0  0  0
   -2.9539    0.1286    2.2980 C   0  0  0  0  0  4           0  0  0
   -2.1758    0.1019    1.1251 C   0  0  0  0  0  4           0  0  0
   -1.9586    0.0211   -1.4379 C   0  0  0  0  0  4           0  0  0
   -2.5250   -0.0283   -2.7918 C   0  0  0  0  0  4           0  0  0
    1.4649    0.0000    0.0000 C   0  0  2  0  0  4           0  0  0
   -0.1869   -1.0049    7.2500 C   0  0  1  0  0  4           0  0  0
    1.7393    0.1595    6.2509 C   0  0  2  0  0  4           0  0  0
   -0.6450   -1.3120    5.8168 C   0  0  0  0  0  4           0  0  0
    0.6264    0.8109    5.4087 C   0  0  0  0  0  4           0  0  0
    2.2657    1.1063    0.6387 C   0  0  0  0  0  4           0  0  0
    2.2617    0.9553   -0.8518 C   0  0  0  0  0  4           0  0  0
   -0.5245   -2.1662    8.1850 C   0  0  0  0  0  4           0  0  0
    2.7398   -0.5887    5.3601 C   0  0  0  0  0  4           0  0  0
  1 10  1  0     0  0
  2 11  1  0     0  0
  3 12  2  0     0  0
  4 19  2  0     0  0
  5 19  1  0     0  0
  6 13  1  0     0  0
  6 14  1  0     0  0
  6 20  1  0     0  0
  7 15  1  0     0  0
  7 23  1  0     0  0
  7 24  1  0     0  0
  8 16  1  0     0  0
  9 21  1  0     0  0
  9 22  1  0     0  0
 10 13  2  0     0  0
 10 15  1  0     0  0
 11 15  2  0     0  0
 11 16  1  0     0  0
 12 17  1  0     0  0
 12 18  1  0     0  0
 13 17  1  0     0  0
 14 18  2  0     0  0
 16 17  2  0     0  0
 18 19  1  0     0  0
 20 25  1  0     0  0
 20 26  1  0     0  0
 21 23  1  0     0  0
 21 27  1  0     0  0
 22 24  1  0     0  0
 22 28  1  0     0  0
 25 26  1  0     0  0
M  END
> <standard_type>
pIC50

> <# Confs.>
25

> <canonical_smiles>
OC(C1=CN(C2CC2)C3=C(F)C(N4C[C@H](C)N[C@H](C)C4)=C(F)C(N)=C3C1=O)=O

> <standard_relation>
=

> <Publication_ID>
nan

> <predicted_activity_value>
nan

> <actual_activity_value>
-1.255272505103306

> <Compound>
Sparfloxacin

> <standard_units>
uM

> hash
2214535980791073314

$$$$
50
XXILIB    08252103503D 0   0.00000     0.00000

 29 33  0     1  0            999 V2000
    0.0000    0.0000   -0.0000 S   0  0  0  0  0  2           0  0  0
    2.4300    0.5136    0.8896 O   0  0  0  0  0  2           0  0  0
   -7.4155    4.5293    1.1240 O   0  0  0  0  0  2           0  0  0
    0.5762   -5.7787    0.9880 O   0  0  0  0  0  2           0  0  0
   -5.7494    3.1100    1.8118 O   0  0  0  0  0  2           0  0  0
    1.7627    0.0000   -0.0000 C   0  0  0  0  0  4           0  0  0
   -0.3522   -0.0000    1.7723 C   0  0  1  0  0  4           0  0  0
   -6.4273    3.8534    0.8845 C   0  0  0  0  0  4           0  0  0
   -0.1322   -4.8818    1.4403 C   0  0  0  0  0  4           0  0  0
   -4.5605    2.5552    1.2279 C   0  0  1  0  0  4           0  0  0
   -0.3224   -2.5188    2.1109 C   0  0  0  0  0  4           0  0  0
    0.4375   -3.5336    1.6658 C   0  0  0  0  0  4           0  0  0
   -4.1251    1.2260    1.9121 C   0  0  2  0  0  4           0  0  0
   -1.8357   -2.6135    2.3365 C   0  0  1  0  0  4           0  0  0
   -1.8660   -0.0000    2.1147 C   0  0  1  0  0  4           0  0  0
   -2.6398    1.1779    1.4942 C   0  0  2  0  0  4           0  0  0
   -2.5559   -1.3487    1.7216 C   0  0  2  0  0  4           0  0  0
    0.3298   -1.1961    2.4478 C   0  0  0  0  0  4           0  0  0
   -5.7586    3.7310   -0.4509 C   0  0  0  0  0  4           0  0  0
   -1.5566   -5.1292    1.8595 C   0  0  0  0  0  4           0  0  0
   -4.9075    2.4943   -0.2564 C   0  0  0  0  0  4           0  0  0
   -3.3506    3.4978    1.4939 C   0  0  0  0  0  4           0  0  0
   -4.7841   -0.0738    1.4226 C   0  0  0  0  0  4           0  0  0
   -2.3976   -3.8830    1.6313 C   0  0  0  0  0  4           0  0  0
   -2.1418    2.5912    1.7853 C   0  0  0  0  0  4           0  0  0
   -4.0862   -1.3196    1.9942 C   0  0  0  0  0  4           0  0  0
    2.3698   -0.6845   -1.1920 C   0  0  0  0  0  4           0  0  0
   -4.3456    1.3503    3.4479 C   0  0  0  0  0  4           0  0  0
   -2.0824   -2.7373    3.8584 C   0  0  0  0  0  4           0  0  0
  1  6  1  0     0  0
  1  7  1  0     0  0
  2  6  2  0     0  0
  3  8  2  0     0  0
  4  9  2  0     0  0
  5  8  1  0     0  0
  5 10  1  0     0  0
  6 27  1  0     0  0
  7 15  1  0     0  0
  7 18  1  0     0  0
  8 19  1  0     0  0
  9 12  1  0     0  0
  9 20  1  0     0  0
 10 13  1  0     0  0
 10 21  1  0     0  0
 10 22  1  0     0  0
 11 12  2  0     0  0
 11 14  1  0     0  0
 11 18  1  0     0  0
 13 16  1  0     0  0
 13 23  1  0     0  0
 13 28  1  0     0  0
 14 17  1  0     0  0
 14 24  1  0     0  0
 14 29  1  0     0  0
 15 16  1  0     0  0
 15 17  1  0     0  0
 16 25  1  0     0  0
 17 26  1  0     0  0
 19 21  1  0     0  0
 20 24  1  0     0  0
 22 25  1  0     0  0
 23 26  1  0     0  0
M  END
> <standard_type>
pIC50

> <# Confs.>
4

> <canonical_smiles>
O=C1CC[C@@]2(C)C(C[C@@H](SC(C)=O)[C@]3([H])[C@]2([H])CC[C@@]4(C)[C@@]3([H])CC[C@]45OC(CC5)=O)=C1

> <standard_relation>
=

> <Publication_ID>
nan

> <predicted_activity_value>
nan

> <actual_activity_value>
-1.3617278360175928

> <Compound>
Spironolactone

> <standard_units>
uM

> hash
9960118490209094635

$$$$
50
XXILIB    08252103503D 0   0.00000     0.00000

 29 33  0     1  0            999 V2000
    0.0000    0.0000   -0.0000 S   0  0  0  0  0  2           0  0  0
    2.4300    0.5136    0.8896 O   0  0  0  0  0  2           0  0  0
   -8.0255    3.0801    1.2284 O   0  0  0  0  0  2           0  0  0
    0.1346   -5.4201    0.1554 O   0  0  0  0  0  2           0  0  0
   -5.7784    3.0644    1.6724 O   0  0  0  0  0  2           0  0  0
    1.7627    0.0000   -0.0000 C   0  0  0  0  0  4           0  0  0
   -0.3522   -0.0000    1.7723 C   0  0  1  0  0  4           0  0  0
   -6.8804    2.7977    0.9116 C   0  0  0  0  0  4           0  0  0
   -0.4659   -4.5295    0.7519 C   0  0  0  0  0  4           0  0  0
   -4.6042    2.4817    1.0855 C   0  0  1  0  0  4           0  0  0
   -0.3498   -2.4843    2.1047 C   0  0  0  0  0  4           0  0  0
    0.2834   -3.4040    1.3571 C   0  0  0  0  0  4           0  0  0
   -4.1493    1.1951    1.8483 C   0  0  2  0  0  4           0  0  0
   -1.8202   -2.5710    2.5301 C   0  0  1  0  0  4           0  0  0
   -1.8773   -0.0000    2.0960 C   0  0  1  0  0  4           0  0  0
   -2.6700    1.1255    1.4060 C   0  0  2  0  0  4           0  0  0
   -2.5669   -1.3868    1.8059 C   0  0  2  0  0  4           0  0  0
    0.3522   -1.1913    2.4516 C   0  0  0  0  0  4           0  0  0
   -6.4785    2.0935   -0.3464 C   0  0  0  0  0  4           0  0  0
   -1.9708   -4.4746    0.8070 C   0  0  0  0  0  4           0  0  0
   -4.9853    2.3284   -0.3848 C   0  0  0  0  0  4           0  0  0
   -3.3966    3.4373    1.2667 C   0  0  0  0  0  4           0  0  0
   -4.8097   -0.1373    1.4619 C   0  0  0  0  0  4           0  0  0
   -2.3983   -3.9717    2.1734 C   0  0  0  0  0  4           0  0  0
   -2.1759    2.5585    1.5871 C   0  0  0  0  0  4           0  0  0
   -4.0922   -1.3442    2.0913 C   0  0  0  0  0  4           0  0  0
    2.3698   -0.6845   -1.1920 C   0  0  0  0  0  4           0  0  0
   -4.3386    1.4163    3.3777 C   0  0  0  0  0  4           0  0  0
   -1.9337   -2.4666    4.0740 C   0  0  0  0  0  4           0  0  0
  1  6  1  0     0  0
  1  7  1  0     0  0
  2  6  2  0     0  0
  3  8  2  0     0  0
  4  9  2  0     0  0
  5  8  1  0     0  0
  5 10  1  0     0  0
  6 27  1  0     0  0
  7 15  1  0     0  0
  7 18  1  0     0  0
  8 19  1  0     0  0
  9 12  1  0     0  0
  9 20  1  0     0  0
 10 13  1  0     0  0
 10 21  1  0     0  0
 10 22  1  0     0  0
 11 12  2  0     0  0
 11 14  1  0     0  0
 11 18  1  0     0  0
 13 16  1  0     0  0
 13 23  1  0     0  0
 13 28  1  0     0  0
 14 17  1  0     0  0
 14 24  1  0     0  0
 14 29  1  0     0  0
 15 16  1  0     0  0
 15 17  1  0     0  0
 16 25  1  0     0  0
 17 26  1  0     0  0
 19 21  1  0     0  0
 20 24  1  0     0  0
 22 25  1  0     0  0
 23 26  1  0     0  0
M  END
> <standard_type>
pIC50

> <# Confs.>
4

> <canonical_smiles>
O=C1CC[C@@]2(C)C(C[C@@H](SC(C)=O)[C@]3([H])[C@]2([H])CC[C@@]4(C)[C@@]3([H])CC[C@]45OC(CC5)=O)=C1

> <standard_relation>
=

> <Publication_ID>
nan

> <predicted_activity_value>
nan

> <actual_activity_value>
-1.3617278360175928

> <Compound>
Spironolactone

> <standard_units>
uM

> hash
9960118490209094635

$$$$
50
XXILIB    08252103503D 0   0.00000     0.00000

 29 33  0     1  0            999 V2000
    0.0000    0.0000   -0.0000 S   0  0  0  0  0  2           0  0  0
    2.4300   -1.0272    0.0000 O   0  0  0  0  0  2           0  0  0
   -7.4155    4.5293    1.1240 O   0  0  0  0  0  2           0  0  0
    0.5762   -5.7787    0.9880 O   0  0  0  0  0  2           0  0  0
   -5.7494    3.1100    1.8118 O   0  0  0  0  0  2           0  0  0
    1.7627    0.0000    0.0000 C   0  0  0  0  0  4           0  0  0
   -0.3522   -0.0000    1.7723 C   0  0  1  0  0  4           0  0  0
   -6.4273    3.8534    0.8845 C   0  0  0  0  0  4           0  0  0
   -0.1322   -4.8818    1.4403 C   0  0  0  0  0  4           0  0  0
   -4.5605    2.5552    1.2279 C   0  0  1  0  0  4           0  0  0
   -0.3224   -2.5188    2.1109 C   0  0  0  0  0  4           0  0  0
    0.4375   -3.5336    1.6658 C   0  0  0  0  0  4           0  0  0
   -4.1251    1.2260    1.9121 C   0  0  2  0  0  4           0  0  0
   -1.8357   -2.6135    2.3365 C   0  0  1  0  0  4           0  0  0
   -1.8660   -0.0000    2.1147 C   0  0  1  0  0  4           0  0  0
   -2.6398    1.1779    1.4942 C   0  0  2  0  0  4           0  0  0
   -2.5559   -1.3487    1.7216 C   0  0  2  0  0  4           0  0  0
    0.3298   -1.1961    2.4478 C   0  0  0  0  0  4           0  0  0
   -5.7586    3.7310   -0.4509 C   0  0  0  0  0  4           0  0  0
   -1.5566   -5.1292    1.8595 C   0  0  0  0  0  4           0  0  0
   -4.9075    2.4943   -0.2564 C   0  0  0  0  0  4           0  0  0
   -3.3506    3.4978    1.4939 C   0  0  0  0  0  4           0  0  0
   -4.7841   -0.0738    1.4226 C   0  0  0  0  0  4           0  0  0
   -2.3976   -3.8830    1.6313 C   0  0  0  0  0  4           0  0  0
   -2.1418    2.5912    1.7853 C   0  0  0  0  0  4           0  0  0
   -4.0862   -1.3196    1.9942 C   0  0  0  0  0  4           0  0  0
    2.3698    1.3745    0.0032 C   0  0  0  0  0  4           0  0  0
   -4.3456    1.3503    3.4479 C   0  0  0  0  0  4           0  0  0
   -2.0824   -2.7373    3.8584 C   0  0  0  0  0  4           0  0  0
  1  6  1  0     0  0
  1  7  1  0     0  0
  2  6  2  0     0  0
  3  8  2  0     0  0
  4  9  2  0     0  0
  5  8  1  0     0  0
  5 10  1  0     0  0
  6 27  1  0     0  0
  7 15  1  0     0  0
  7 18  1  0     0  0
  8 19  1  0     0  0
  9 12  1  0     0  0
  9 20  1  0     0  0
 10 13  1  0     0  0
 10 21  1  0     0  0
 10 22  1  0     0  0
 11 12  2  0     0  0
 11 14  1  0     0  0
 11 18  1  0     0  0
 13 16  1  0     0  0
 13 23  1  0     0  0
 13 28  1  0     0  0
 14 17  1  0     0  0
 14 24  1  0     0  0
 14 29  1  0     0  0
 15 16  1  0     0  0
 15 17  1  0     0  0
 16 25  1  0     0  0
 17 26  1  0     0  0
 19 21  1  0     0  0
 20 24  1  0     0  0
 22 25  1  0     0  0
 23 26  1  0     0  0
M  END
> <standard_type>
pIC50

> <# Confs.>
4

> <canonical_smiles>
O=C1CC[C@@]2(C)C(C[C@@H](SC(C)=O)[C@]3([H])[C@]2([H])CC[C@@]4(C)[C@@]3([H])CC[C@]45OC(CC5)=O)=C1

> <standard_relation>
=

> <Publication_ID>
nan

> <predicted_activity_value>
nan

> <actual_activity_value>
-1.3617278360175928

> <Compound>
Spironolactone

> <standard_units>
uM

> hash
9960118490209094635

$$$$
50
XXILIB    08252103503D 0   0.00000     0.00000

 29 33  0     1  0            999 V2000
    0.0000    0.0000   -0.0000 S   0  0  0  0  0  2           0  0  0
    2.4300   -1.0272    0.0000 O   0  0  0  0  0  2           0  0  0
   -8.0255    3.0801    1.2284 O   0  0  0  0  0  2           0  0  0
    0.1346   -5.4201    0.1554 O   0  0  0  0  0  2           0  0  0
   -5.7784    3.0644    1.6724 O   0  0  0  0  0  2           0  0  0
    1.7627    0.0000    0.0000 C   0  0  0  0  0  4           0  0  0
   -0.3522   -0.0000    1.7723 C   0  0  1  0  0  4           0  0  0
   -6.8804    2.7977    0.9116 C   0  0  0  0  0  4           0  0  0
   -0.4659   -4.5295    0.7519 C   0  0  0  0  0  4           0  0  0
   -4.6042    2.4817    1.0855 C   0  0  1  0  0  4           0  0  0
   -0.3498   -2.4843    2.1047 C   0  0  0  0  0  4           0  0  0
    0.2834   -3.4040    1.3571 C   0  0  0  0  0  4           0  0  0
   -4.1493    1.1951    1.8483 C   0  0  2  0  0  4           0  0  0
   -1.8202   -2.5710    2.5301 C   0  0  1  0  0  4           0  0  0
   -1.8773   -0.0000    2.0960 C   0  0  1  0  0  4           0  0  0
   -2.6700    1.1255    1.4060 C   0  0  2  0  0  4           0  0  0
   -2.5669   -1.3868    1.8059 C   0  0  2  0  0  4           0  0  0
    0.3522   -1.1913    2.4516 C   0  0  0  0  0  4           0  0  0
   -6.4785    2.0935   -0.3464 C   0  0  0  0  0  4           0  0  0
   -1.9708   -4.4746    0.8070 C   0  0  0  0  0  4           0  0  0
   -4.9853    2.3284   -0.3848 C   0  0  0  0  0  4           0  0  0
   -3.3966    3.4373    1.2667 C   0  0  0  0  0  4           0  0  0
   -4.8097   -0.1373    1.4619 C   0  0  0  0  0  4           0  0  0
   -2.3983   -3.9717    2.1734 C   0  0  0  0  0  4           0  0  0
   -2.1759    2.5585    1.5871 C   0  0  0  0  0  4           0  0  0
   -4.0922   -1.3442    2.0913 C   0  0  0  0  0  4           0  0  0
    2.3698    1.3745    0.0032 C   0  0  0  0  0  4           0  0  0
   -4.3386    1.4163    3.3777 C   0  0  0  0  0  4           0  0  0
   -1.9337   -2.4666    4.0740 C   0  0  0  0  0  4           0  0  0
  1  6  1  0     0  0
  1  7  1  0     0  0
  2  6  2  0     0  0
  3  8  2  0     0  0
  4  9  2  0     0  0
  5  8  1  0     0  0
  5 10  1  0     0  0
  6 27  1  0     0  0
  7 15  1  0     0  0
  7 18  1  0     0  0
  8 19  1  0     0  0
  9 12  1  0     0  0
  9 20  1  0     0  0
 10 13  1  0     0  0
 10 21  1  0     0  0
 10 22  1  0     0  0
 11 12  2  0     0  0
 11 14  1  0     0  0
 11 18  1  0     0  0
 13 16  1  0     0  0
 13 23  1  0     0  0
 13 28  1  0     0  0
 14 17  1  0     0  0
 14 24  1  0     0  0
 14 29  1  0     0  0
 15 16  1  0     0  0
 15 17  1  0     0  0
 16 25  1  0     0  0
 17 26  1  0     0  0
 19 21  1  0     0  0
 20 24  1  0     0  0
 22 25  1  0     0  0
 23 26  1  0     0  0
M  END
> <standard_type>
pIC50

> <# Confs.>
4

> <canonical_smiles>
O=C1CC[C@@]2(C)C(C[C@@H](SC(C)=O)[C@]3([H])[C@]2([H])CC[C@@]4(C)[C@@]3([H])CC[C@]45OC(CC5)=O)=C1

> <standard_relation>
=

> <Publication_ID>
nan

> <predicted_activity_value>
nan

> <actual_activity_value>
-1.3617278360175928

> <Compound>
Spironolactone

> <standard_units>
uM

> hash
9960118490209094635

$$$$
28
XXILIB    08252103503D 0   0.00000     0.00000

 27 30  0     1  0            999 V2000
   -8.1388    0.3808   -5.7894 Cl  0  0  0  0  0  1           0  0  0
   -0.6843    0.0000    1.0213 O   0  0  0  0  0  2           0  0  0
    1.3623    0.0000    0.0000 O   0  0  0  0  0  2           0  0  0
   -0.3903   -0.3865   -6.2159 N   0  0  0  0  0  3           0  0  0
   -0.5187   -0.0002   -1.2843 N   0  0  1  0  0  3           0  0  0
   -6.4323    0.4461   -5.5615 C   0  0  0  0  0  4           0  0  0
   -1.3463    0.5829   -6.2365 C   0  0  0  0  0  4           0  0  0
    0.4045   -0.5129   -7.2989 C   0  0  0  0  0  4           0  0  0
   -1.5629    1.4170   -7.3425 C   0  0  0  0  0  4           0  0  0
   -3.6718    0.5538   -5.1840 C   0  0  0  0  0  4           0  0  0
   -4.3341    1.6295   -5.8035 C   0  0  0  0  0  4           0  0  0
   -5.7216    1.5711   -5.9838 C   0  0  0  0  0  4           0  0  0
   -5.7739   -0.6297   -4.9668 C   0  0  0  0  0  4           0  0  0
    0.2908    0.2694   -8.4278 C   0  0  0  0  0  4           0  0  0
   -0.7076    1.2353   -8.4432 C   0  0  0  0  0  4           0  0  0
   -4.3925   -0.5796   -4.7840 C   0  0  0  0  0  4           0  0  0
    0.0000    0.0000    0.0000 C   0  0  0  0  0  4           0  0  0
    2.0664    0.0000    1.2579 C   0  0  0  0  0  4           0  0  0
    0.3073   -0.0002   -2.4992 C   0  0  0  0  0  4           0  0  0
   -1.9647   -0.1019   -1.4959 C   0  0  0  0  0  4           0  0  0
   -2.2003    0.6314   -5.0219 C   0  0  0  0  0  4           0  0  0
   -2.6513    2.4612   -7.4939 C   0  0  0  0  0  4           0  0  0
   -3.5389    2.8148   -6.2940 C   0  0  0  0  0  4           0  0  0
   -1.6635    0.8455   -3.7908 C   0  0  0  0  0  4           0  0  0
   -0.1834    1.0505   -3.4961 C   0  0  0  0  0  4           0  0  0
   -2.4589    0.9456   -2.4949 C   0  0  0  0  0  4           0  0  0
    3.5560    0.0000    0.9741 C   0  0  0  0  0  4           0  0  0
  1  6  1  0     0  0
  2 17  2  0     0  0
  3 17  1  0     0  0
  3 18  1  0     0  0
  4  7  1  0     0  0
  4  8  2  0     0  0
  5 17  1  0     0  0
  5 19  1  0     0  0
  5 20  1  0     0  0
  6 12  1  0     0  0
  6 13  2  0     0  0
  7  9  2  0     0  0
  7 21  1  0     0  0
  8 14  1  0     0  0
  9 15  1  0     0  0
  9 22  1  0     0  0
 10 11  1  0     0  0
 10 16  2  0     0  0
 10 21  1  0     0  0
 11 12  2  0     0  0
 11 23  1  0     0  0
 13 16  1  0     0  0
 14 15  2  0     0  0
 18 27  1  0     0  0
 19 25  1  0     0  0
 20 26  1  0     0  0
 21 24  2  0     0  0
 22 23  1  0     0  0
 24 25  1  0     0  0
 24 26  1  0     0  0
M  END
> <standard_type>
pIC50

> <# Confs.>
25

> <canonical_smiles>
ClC1=CC=C2C(CCC3=C(/C2=C4CCN(CC\4)C(OCC)=O)N=CC=C3)=C1

> <standard_relation>
=

> <Publication_ID>
nan

> <predicted_activity_value>
nan

> <actual_activity_value>
0.7619538968712045

> <Compound>
Loratadine

> <standard_units>
uM

> hash
10847742968109876124

$$$$
28
XXILIB    08252103503D 0   0.00000     0.00000

 27 30  0     1  0            999 V2000
    1.2942    0.2878   -9.9376 Cl  0  0  0  0  0  1           0  0  0
   -0.6843   -0.0000    1.0213 O   0  0  0  0  0  2           0  0  0
    1.3623    0.0000    0.0000 O   0  0  0  0  0  2           0  0  0
   -4.2643   -0.3914   -4.5111 N   0  0  0  0  0  3           0  0  0
   -0.5187   -0.0002   -1.2843 N   0  0  1  0  0  3           0  0  0
    0.3072    0.3723   -8.5281 C   0  0  0  0  0  4           0  0  0
   -3.6261    0.5685   -5.2359 C   0  0  0  0  0  4           0  0  0
   -5.6008   -0.5077   -4.6556 C   0  0  0  0  0  4           0  0  0
   -4.2889    1.4028   -6.1475 C   0  0  0  0  0  4           0  0  0
   -1.2809    0.5124   -6.2415 C   0  0  0  0  0  4           0  0  0
   -1.2805    1.5808   -7.1566 C   0  0  0  0  0  4           0  0  0
   -0.4748    1.5061   -8.2994 C   0  0  0  0  0  4           0  0  0
    0.2904   -0.6965   -7.6327 C   0  0  0  0  0  4           0  0  0
   -6.3505    0.2765   -5.5057 C   0  0  0  0  0  4           0  0  0
   -5.6800    1.2331   -6.2576 C   0  0  0  0  0  4           0  0  0
   -0.5083   -0.6297   -6.4920 C   0  0  0  0  0  4           0  0  0
    0.0000    0.0000    0.0000 C   0  0  0  0  0  4           0  0  0
    2.0664    0.0000    1.2579 C   0  0  0  0  0  4           0  0  0
   -1.9687   -0.0004   -1.4936 C   0  0  0  0  0  4           0  0  0
    0.3037   -0.1077   -2.4967 C   0  0  0  0  0  4           0  0  0
   -2.1533    0.6068   -5.0473 C   0  0  0  0  0  4           0  0  0
   -3.6569    2.4341   -7.0614 C   0  0  0  0  0  4           0  0  0
   -2.1692    2.7758   -6.9100 C   0  0  0  0  0  4           0  0  0
   -1.6033    0.8288   -3.8234 C   0  0  0  0  0  4           0  0  0
   -2.3795    1.0437   -2.5315 C   0  0  0  0  0  4           0  0  0
   -0.1090    0.9304   -3.5422 C   0  0  0  0  0  4           0  0  0
    3.5560    0.0000    0.9741 C   0  0  0  0  0  4           0  0  0
  1  6  1  0     0  0
  2 17  2  0     0  0
  3 17  1  0     0  0
  3 18  1  0     0  0
  4  7  1  0     0  0
  4  8  2  0     0  0
  5 17  1  0     0  0
  5 19  1  0     0  0
  5 20  1  0     0  0
  6 12  1  0     0  0
  6 13  2  0     0  0
  7  9  2  0     0  0
  7 21  1  0     0  0
  8 14  1  0     0  0
  9 15  1  0     0  0
  9 22  1  0     0  0
 10 11  1  0     0  0
 10 16  2  0     0  0
 10 21  1  0     0  0
 11 12  2  0     0  0
 11 23  1  0     0  0
 13 16  1  0     0  0
 14 15  2  0     0  0
 18 27  1  0     0  0
 19 25  1  0     0  0
 20 26  1  0     0  0
 21 24  2  0     0  0
 22 23  1  0     0  0
 24 25  1  0     0  0
 24 26  1  0     0  0
M  END
> <standard_type>
pIC50

> <# Confs.>
25

> <canonical_smiles>
ClC1=CC=C2C(CCC3=C(/C2=C4CCN(CC\4)C(OCC)=O)N=CC=C3)=C1

> <standard_relation>
=

> <Publication_ID>
nan

> <predicted_activity_value>
nan

> <actual_activity_value>
0.7619538968712045

> <Compound>
Loratadine

> <standard_units>
uM

> hash
10847742968109876124

$$$$
28
XXILIB    08252103503D 0   0.00000     0.00000

 27 30  0     1  0            999 V2000
    1.2206    0.0107   -9.9686 Cl  0  0  0  0  0  1           0  0  0
   -0.6843   -0.0000    1.0213 O   0  0  0  0  0  2           0  0  0
    1.3623    0.0000    0.0000 O   0  0  0  0  0  2           0  0  0
   -4.2569    0.5234   -4.4406 N   0  0  0  0  0  3           0  0  0
   -0.5187   -0.0002   -1.2843 N   0  0  1  0  0  3           0  0  0
    0.2520   -0.1244   -8.5505 C   0  0  0  0  0  4           0  0  0
   -3.6437   -0.4113   -5.2186 C   0  0  0  0  0  4           0  0  0
   -5.5938    0.6643   -4.5565 C   0  0  0  0  0  4           0  0  0
   -4.3330   -1.1921   -6.1569 C   0  0  0  0  0  4           0  0  0
   -1.3083   -0.3459   -6.2499 C   0  0  0  0  0  4           0  0  0
   -1.3425   -1.3669   -7.2174 C   0  0  0  0  0  4           0  0  0
   -0.5524   -1.2507   -8.3680 C   0  0  0  0  0  4           0  0  0
    0.2727    0.8968   -7.6014 C   0  0  0  0  0  4           0  0  0
   -6.3682   -0.0703   -5.4282 C   0  0  0  0  0  4           0  0  0
   -5.7233   -0.9987   -6.2356 C   0  0  0  0  0  4           0  0  0
   -0.5133    0.7903   -6.4546 C   0  0  0  0  0  4           0  0  0
    0.0000    0.0000    0.0000 C   0  0  0  0  0  4           0  0  0
    2.0664    0.0000    1.2579 C   0  0  0  0  0  4           0  0  0
   -1.9695   -0.0004   -1.4899 C   0  0  0  0  0  4           0  0  0
    0.3038    0.1287   -2.4953 C   0  0  0  0  0  4           0  0  0
   -2.1692   -0.4803   -5.0507 C   0  0  0  0  0  4           0  0  0
   -3.7317   -2.1881   -7.1279 C   0  0  0  0  0  4           0  0  0
   -2.2478   -2.5580   -7.0168 C   0  0  0  0  0  4           0  0  0
   -1.6117   -0.7569   -3.8417 C   0  0  0  0  0  4           0  0  0
   -2.3801   -1.0175   -2.5535 C   0  0  0  0  0  4           0  0  0
   -0.1175   -0.8759   -3.5706 C   0  0  0  0  0  4           0  0  0
    3.5560    0.0000    0.9741 C   0  0  0  0  0  4           0  0  0
  1  6  1  0     0  0
  2 17  2  0     0  0
  3 17  1  0     0  0
  3 18  1  0     0  0
  4  7  1  0     0  0
  4  8  2  0     0  0
  5 17  1  0     0  0
  5 19  1  0     0  0
  5 20  1  0     0  0
  6 12  1  0     0  0
  6 13  2  0     0  0
  7  9  2  0     0  0
  7 21  1  0     0  0
  8 14  1  0     0  0
  9 15  1  0     0  0
  9 22  1  0     0  0
 10 11  1  0     0  0
 10 16  2  0     0  0
 10 21  1  0     0  0
 11 12  2  0     0  0
 11 23  1  0     0  0
 13 16  1  0     0  0
 14 15  2  0     0  0
 18 27  1  0     0  0
 19 25  1  0     0  0
 20 26  1  0     0  0
 21 24  2  0     0  0
 22 23  1  0     0  0
 24 25  1  0     0  0
 24 26  1  0     0  0
M  END
> <standard_type>
pIC50

> <# Confs.>
25

> <canonical_smiles>
ClC1=CC=C2C(CCC3=C(/C2=C4CCN(CC\4)C(OCC)=O)N=CC=C3)=C1

> <standard_relation>
=

> <Publication_ID>
nan

> <predicted_activity_value>
nan

> <actual_activity_value>
0.7619538968712045

> <Compound>
Loratadine

> <standard_units>
uM

> hash
10847742968109876124

$$$$
28
XXILIB    08252103503D 0   0.00000     0.00000

 27 30  0     1  0            999 V2000
   -8.0701    0.0049   -5.6806 Cl  0  0  0  0  0  1           0  0  0
   -0.6843    0.0000    1.0213 O   0  0  0  0  0  2           0  0  0
    1.3623    0.0000    0.0000 O   0  0  0  0  0  2           0  0  0
   -0.5678   -1.9534   -6.4038 N   0  0  0  0  0  3           0  0  0
   -0.5187   -0.0002   -1.2843 N   0  0  1  0  0  3           0  0  0
   -6.3806   -0.2632   -5.4758 C   0  0  0  0  0  4           0  0  0
   -1.3383   -0.8481   -6.2064 C   0  0  0  0  0  4           0  0  0
    0.2071   -1.9935   -7.5077 C   0  0  0  0  0  4           0  0  0
   -1.3886    0.2194   -7.1141 C   0  0  0  0  0  4           0  0  0
   -3.6483   -0.6965   -5.1354 C   0  0  0  0  0  4           0  0  0
   -4.1103    0.5771   -5.5147 C   0  0  0  0  0  4           0  0  0
   -5.4848    0.7885   -5.6782 C   0  0  0  0  0  4           0  0  0
   -5.9220   -1.5307   -5.1184 C   0  0  0  0  0  4           0  0  0
    0.2512   -0.9882   -8.4496 C   0  0  0  0  0  4           0  0  0
   -0.5600    0.1212   -8.2454 C   0  0  0  0  0  4           0  0  0
   -4.5549   -1.7496   -4.9540 C   0  0  0  0  0  4           0  0  0
    0.0000    0.0000    0.0000 C   0  0  0  0  0  4           0  0  0
    2.0664    0.0000    1.2579 C   0  0  0  0  0  4           0  0  0
    0.2985   -0.0002   -2.5001 C   0  0  0  0  0  4           0  0  0
   -1.9616    0.0713   -1.5018 C   0  0  0  0  0  4           0  0  0
   -2.1875   -0.8997   -4.9886 C   0  0  0  0  0  4           0  0  0
   -2.2792    1.4430   -7.0281 C   0  0  0  0  0  4           0  0  0
   -3.1189    1.6872   -5.7678 C   0  0  0  0  0  4           0  0  0
   -1.6381   -1.0191   -3.7495 C   0  0  0  0  0  4           0  0  0
   -0.1427   -1.1058   -3.4626 C   0  0  0  0  0  4           0  0  0
   -2.4326   -1.0342   -2.4467 C   0  0  0  0  0  4           0  0  0
    3.5560    0.0000    0.9741 C   0  0  0  0  0  4           0  0  0
  1  6  1  0     0  0
  2 17  2  0     0  0
  3 17  1  0     0  0
  3 18  1  0     0  0
  4  7  1  0     0  0
  4  8  2  0     0  0
  5 17  1  0     0  0
  5 19  1  0     0  0
  5 20  1  0     0  0
  6 12  1  0     0  0
  6 13  2  0     0  0
  7  9  2  0     0  0
  7 21  1  0     0  0
  8 14  1  0     0  0
  9 15  1  0     0  0
  9 22  1  0     0  0
 10 11  1  0     0  0
 10 16  2  0     0  0
 10 21  1  0     0  0
 11 12  2  0     0  0
 11 23  1  0     0  0
 13 16  1  0     0  0
 14 15  2  0     0  0
 18 27  1  0     0  0
 19 25  1  0     0  0
 20 26  1  0     0  0
 21 24  2  0     0  0
 22 23  1  0     0  0
 24 25  1  0     0  0
 24 26  1  0     0  0
M  END
> <standard_type>
pIC50

> <# Confs.>
25

> <canonical_smiles>
ClC1=CC=C2C(CCC3=C(/C2=C4CCN(CC\4)C(OCC)=O)N=CC=C3)=C1

> <standard_relation>
=

> <Publication_ID>
nan

> <predicted_activity_value>
nan

> <actual_activity_value>
0.7619538968712045

> <Compound>
Loratadine

> <standard_units>
uM

> hash
10847742968109876124

$$$$
28
XXILIB    08252103503D 0   0.00000     0.00000

 27 30  0     1  0            999 V2000
    1.2581    0.4197   -9.8526 Cl  0  0  0  0  0  1           0  0  0
   -0.6843    0.0000    1.0213 O   0  0  0  0  0  2           0  0  0
    1.3623    0.0000    0.0000 O   0  0  0  0  0  2           0  0  0
   -4.3496    1.9445   -4.6688 N   0  0  0  0  0  3           0  0  0
   -0.5187   -0.0002   -1.2843 N   0  0  1  0  0  3           0  0  0
    0.2797    0.5887   -8.4446 C   0  0  0  0  0  4           0  0  0
   -3.6468    0.8871   -5.1615 C   0  0  0  0  0  4           0  0  0
   -5.6900    1.9386   -4.8229 C   0  0  0  0  0  4           0  0  0
   -4.2494   -0.1730   -5.8534 C   0  0  0  0  0  4           0  0  0
   -1.3004    0.8632   -6.1641 C   0  0  0  0  0  4           0  0  0
   -1.2309   -0.3802   -6.8192 C   0  0  0  0  0  4           0  0  0
   -0.4311   -0.5115   -7.9612 C   0  0  0  0  0  4           0  0  0
    0.1979    1.8257   -7.8061 C   0  0  0  0  0  4           0  0  0
   -6.3830    0.9342   -5.4638 C   0  0  0  0  0  4           0  0  0
   -5.6479   -0.1229   -5.9852 C   0  0  0  0  0  4           0  0  0
   -0.5972    1.9654   -6.6692 C   0  0  0  0  0  4           0  0  0
    0.0000    0.0000    0.0000 C   0  0  0  0  0  4           0  0  0
    2.0664    0.0000    1.2579 C   0  0  0  0  0  4           0  0  0
    0.2962   -0.0002   -2.5017 C   0  0  0  0  0  4           0  0  0
   -1.9620   -0.0512   -1.5015 C   0  0  0  0  0  4           0  0  0
   -2.1758    0.9840   -4.9740 C   0  0  0  0  0  4           0  0  0
   -3.5475   -1.3422   -6.5148 C   0  0  0  0  0  4           0  0  0
   -2.0422   -1.5438   -6.3027 C   0  0  0  0  0  4           0  0  0
   -1.6287    1.0714   -3.7308 C   0  0  0  0  0  4           0  0  0
   -0.1303    1.1271   -3.4441 C   0  0  0  0  0  4           0  0  0
   -2.4222    1.0760   -2.4278 C   0  0  0  0  0  4           0  0  0
    3.5560    0.0000    0.9741 C   0  0  0  0  0  4           0  0  0
  1  6  1  0     0  0
  2 17  2  0     0  0
  3 17  1  0     0  0
  3 18  1  0     0  0
  4  7  1  0     0  0
  4  8  2  0     0  0
  5 17  1  0     0  0
  5 19  1  0     0  0
  5 20  1  0     0  0
  6 12  1  0     0  0
  6 13  2  0     0  0
  7  9  2  0     0  0
  7 21  1  0     0  0
  8 14  1  0     0  0
  9 15  1  0     0  0
  9 22  1  0     0  0
 10 11  1  0     0  0
 10 16  2  0     0  0
 10 21  1  0     0  0
 11 12  2  0     0  0
 11 23  1  0     0  0
 13 16  1  0     0  0
 14 15  2  0     0  0
 18 27  1  0     0  0
 19 25  1  0     0  0
 20 26  1  0     0  0
 21 24  2  0     0  0
 22 23  1  0     0  0
 24 25  1  0     0  0
 24 26  1  0     0  0
M  END
> <standard_type>
pIC50

> <# Confs.>
25

> <canonical_smiles>
ClC1=CC=C2C(CCC3=C(/C2=C4CCN(CC\4)C(OCC)=O)N=CC=C3)=C1

> <standard_relation>
=

> <Publication_ID>
nan

> <predicted_activity_value>
nan

> <actual_activity_value>
0.7619538968712045

> <Compound>
Loratadine

> <standard_units>
uM

> hash
10847742968109876124

$$$$
28
XXILIB    08252103503D 0   0.00000     0.00000

 27 30  0     1  0            999 V2000
    1.2932    0.3829   -9.8158 Cl  0  0  0  0  0  1           0  0  0
   -0.6843   -0.0000    1.0213 O   0  0  0  0  0  2           0  0  0
    1.3623    0.0000    0.0000 O   0  0  0  0  0  2           0  0  0
   -4.2992   -1.7489   -4.8467 N   0  0  0  0  0  3           0  0  0
   -0.5187   -0.0002   -1.2843 N   0  0  1  0  0  3           0  0  0
    0.3134    0.0563   -8.4367 C   0  0  0  0  0  4           0  0  0
   -3.6113   -0.6336   -5.2162 C   0  0  0  0  0  4           0  0  0
   -5.6384   -1.7467   -5.0118 C   0  0  0  0  0  4           0  0  0
   -4.2252    0.4875   -5.7927 C   0  0  0  0  0  4           0  0  0
   -1.2661   -0.4742   -6.2029 C   0  0  0  0  0  4           0  0  0
   -1.2085    0.8325   -6.7214 C   0  0  0  0  0  4           0  0  0
   -0.4080    1.0924   -7.8405 C   0  0  0  0  0  4           0  0  0
    0.2422   -1.2426   -7.9340 C   0  0  0  0  0  4           0  0  0
   -6.3427   -0.6890   -5.5460 C   0  0  0  0  0  4           0  0  0
   -5.6217    0.4307   -5.9418 C   0  0  0  0  0  4           0  0  0
   -0.5524   -1.5099   -6.8200 C   0  0  0  0  0  4           0  0  0
    0.0000    0.0000    0.0000 C   0  0  0  0  0  4           0  0  0
    2.0664    0.0000    1.2579 C   0  0  0  0  0  4           0  0  0
   -1.9648   -0.0004   -1.4971 C   0  0  0  0  0  4           0  0  0
    0.2980    0.0997   -2.4976 C   0  0  0  0  0  4           0  0  0
   -2.1408   -0.7288   -5.0342 C   0  0  0  0  0  4           0  0  0
   -3.5360    1.7332   -6.3138 C   0  0  0  0  0  4           0  0  0
   -2.0314    1.9258   -6.0839 C   0  0  0  0  0  4           0  0  0
   -1.5936   -0.9244   -3.8044 C   0  0  0  0  0  4           0  0  0
   -2.3827   -1.0694   -2.5084 C   0  0  0  0  0  4           0  0  0
   -0.0961   -0.9685   -3.5190 C   0  0  0  0  0  4           0  0  0
    3.5560    0.0000    0.9741 C   0  0  0  0  0  4           0  0  0
  1  6  1  0     0  0
  2 17  2  0     0  0
  3 17  1  0     0  0
  3 18  1  0     0  0
  4  7  1  0     0  0
  4  8  2  0     0  0
  5 17  1  0     0  0
  5 19  1  0     0  0
  5 20  1  0     0  0
  6 12  1  0     0  0
  6 13  2  0     0  0
  7  9  2  0     0  0
  7 21  1  0     0  0
  8 14  1  0     0  0
  9 15  1  0     0  0
  9 22  1  0     0  0
 10 11  1  0     0  0
 10 16  2  0     0  0
 10 21  1  0     0  0
 11 12  2  0     0  0
 11 23  1  0     0  0
 13 16  1  0     0  0
 14 15  2  0     0  0
 18 27  1  0     0  0
 19 25  1  0     0  0
 20 26  1  0     0  0
 21 24  2  0     0  0
 22 23  1  0     0  0
 24 25  1  0     0  0
 24 26  1  0     0  0
M  END
> <standard_type>
pIC50

> <# Confs.>
25

> <canonical_smiles>
ClC1=CC=C2C(CCC3=C(/C2=C4CCN(CC\4)C(OCC)=O)N=CC=C3)=C1

> <standard_relation>
=

> <Publication_ID>
nan

> <predicted_activity_value>
nan

> <actual_activity_value>
0.7619538968712045

> <Compound>
Loratadine

> <standard_units>
uM

> hash
10847742968109876124

$$$$
28
XXILIB    08252103503D 0   0.00000     0.00000

 27 30  0     1  0            999 V2000
   -7.8322   -0.2900   -6.2519 Cl  0  0  0  0  0  1           0  0  0
   -0.6843    0.0000    1.0213 O   0  0  0  0  0  2           0  0  0
    1.3623    0.0000    0.0000 O   0  0  0  0  0  2           0  0  0
   -0.0643    0.3899   -6.2073 N   0  0  0  0  0  3           0  0  0
   -0.5187   -0.0002   -1.2843 N   0  0  1  0  0  3           0  0  0
   -6.1432   -0.3743   -5.9231 C   0  0  0  0  0  4           0  0  0
   -1.0267   -0.5700   -6.2855 C   0  0  0  0  0  4           0  0  0
    0.7970    0.5062   -7.2395 C   0  0  0  0  0  4           0  0  0
   -1.1827   -1.4046   -7.4015 C   0  0  0  0  0  4           0  0  0
   -3.4125   -0.5139   -5.3806 C   0  0  0  0  0  4           0  0  0
   -4.0482   -1.5826   -6.0385 C   0  0  0  0  0  4           0  0  0
   -5.4215   -1.5081   -6.3013 C   0  0  0  0  0  4           0  0  0
   -5.5095    0.6948   -5.2907 C   0  0  0  0  0  4           0  0  0
    0.7463   -0.2784   -8.3716 C   0  0  0  0  0  4           0  0  0
   -0.2582   -1.2351   -8.4468 C   0  0  0  0  0  4           0  0  0
   -4.1426    0.6282   -5.0245 C   0  0  0  0  0  4           0  0  0
    0.0000    0.0000    0.0000 C   0  0  0  0  0  4           0  0  0
    2.0664    0.0000    1.2579 C   0  0  0  0  0  4           0  0  0
    0.3793   -0.0002   -2.4419 C   0  0  0  0  0  4           0  0  0
   -1.9523    0.1071   -1.5857 C   0  0  0  0  0  4           0  0  0
   -1.9555   -0.6081   -5.1271 C   0  0  0  0  0  4           0  0  0
   -2.2721   -2.4360   -7.6200 C   0  0  0  0  0  4           0  0  0
   -3.2374   -2.7776   -6.4779 C   0  0  0  0  0  4           0  0  0
   -1.5013   -0.8299   -3.8643 C   0  0  0  0  0  4           0  0  0
   -0.0456   -1.0445   -3.4737 C   0  0  0  0  0  4           0  0  0
   -2.3813   -0.9312   -2.6243 C   0  0  0  0  0  4           0  0  0
    3.5560    0.0000    0.9741 C   0  0  0  0  0  4           0  0  0
  1  6  1  0     0  0
  2 17  2  0     0  0
  3 17  1  0     0  0
  3 18  1  0     0  0
  4  7  1  0     0  0
  4  8  2  0     0  0
  5 17  1  0     0  0
  5 19  1  0     0  0
  5 20  1  0     0  0
  6 12  1  0     0  0
  6 13  2  0     0  0
  7  9  2  0     0  0
  7 21  1  0     0  0
  8 14  1  0     0  0
  9 15  1  0     0  0
  9 22  1  0     0  0
 10 11  1  0     0  0
 10 16  2  0     0  0
 10 21  1  0     0  0
 11 12  2  0     0  0
 11 23  1  0     0  0
 13 16  1  0     0  0
 14 15  2  0     0  0
 18 27  1  0     0  0
 19 25  1  0     0  0
 20 26  1  0     0  0
 21 24  2  0     0  0
 22 23  1  0     0  0
 24 25  1  0     0  0
 24 26  1  0     0  0
M  END
> <standard_type>
pIC50

> <# Confs.>
25

> <canonical_smiles>
ClC1=CC=C2C(CCC3=C(/C2=C4CCN(CC\4)C(OCC)=O)N=CC=C3)=C1

> <standard_relation>
=

> <Publication_ID>
nan

> <predicted_activity_value>
nan

> <actual_activity_value>
0.7619538968712045

> <Compound>
Loratadine

> <standard_units>
uM

> hash
10847742968109876124

$$$$
28
XXILIB    08252103503D 0   0.00000     0.00000

 27 30  0     1  0            999 V2000
   -8.1166    0.2149   -5.8745 Cl  0  0  0  0  0  1           0  0  0
   -0.6843    0.0000    1.0213 O   0  0  0  0  0  2           0  0  0
    1.3623    0.0000    0.0000 O   0  0  0  0  0  2           0  0  0
   -0.6676    1.6821   -6.6560 N   0  0  0  0  0  3           0  0  0
   -0.5187   -0.0002   -1.2843 N   0  0  1  0  0  3           0  0  0
   -6.4179    0.3570   -5.6324 C   0  0  0  0  0  4           0  0  0
   -1.2757    0.5769   -6.1621 C   0  0  0  0  0  4           0  0  0
    0.1553    1.4936   -7.7109 C   0  0  0  0  0  4           0  0  0
   -1.1154   -0.7069   -6.6881 C   0  0  0  0  0  4           0  0  0
   -3.6479    0.5641   -5.2267 C   0  0  0  0  0  4           0  0  0
   -4.1769   -0.6043   -5.8196 C   0  0  0  0  0  4           0  0  0
   -5.5737   -0.6893   -6.0042 C   0  0  0  0  0  4           0  0  0
   -5.8930    1.5190   -5.0835 C   0  0  0  0  0  4           0  0  0
    0.3942    0.2621   -8.2991 C   0  0  0  0  0  4           0  0  0
   -0.2562   -0.8515   -7.7769 C   0  0  0  0  0  4           0  0  0
   -4.5162    1.6245   -4.8945 C   0  0  0  0  0  4           0  0  0
    0.0000    0.0000    0.0000 C   0  0  0  0  0  4           0  0  0
    2.0664    0.0000    1.2579 C   0  0  0  0  0  4           0  0  0
    0.3009   -0.0002   -2.4995 C   0  0  0  0  0  4           0  0  0
   -1.9608   -0.1005   -1.4987 C   0  0  0  0  0  4           0  0  0
   -2.1886    0.7546   -5.0120 C   0  0  0  0  0  4           0  0  0
   -1.8637   -1.8698   -6.0959 C   0  0  0  0  0  4           0  0  0
   -3.3742   -1.7844   -6.3465 C   0  0  0  0  0  4           0  0  0
   -1.6596    0.9348   -3.7713 C   0  0  0  0  0  4           0  0  0
   -0.1689    1.0757   -3.4794 C   0  0  0  0  0  4           0  0  0
   -2.4599    0.9663   -2.4752 C   0  0  0  0  0  4           0  0  0
    3.5560    0.0000    0.9741 C   0  0  0  0  0  4           0  0  0
  1  6  1  0     0  0
  2 17  2  0     0  0
  3 17  1  0     0  0
  3 18  1  0     0  0
  4  7  1  0     0  0
  4  8  2  0     0  0
  5 17  1  0     0  0
  5 19  1  0     0  0
  5 20  1  0     0  0
  6 12  1  0     0  0
  6 13  2  0     0  0
  7  9  2  0     0  0
  7 21  1  0     0  0
  8 14  1  0     0  0
  9 15  1  0     0  0
  9 22  1  0     0  0
 10 11  1  0     0  0
 10 16  2  0     0  0
 10 21  1  0     0  0
 11 12  2  0     0  0
 11 23  1  0     0  0
 13 16  1  0     0  0
 14 15  2  0     0  0
 18 27  1  0     0  0
 19 25  1  0     0  0
 20 26  1  0     0  0
 21 24  2  0     0  0
 22 23  1  0     0  0
 24 25  1  0     0  0
 24 26  1  0     0  0
M  END
> <standard_type>
pIC50

> <# Confs.>
25

> <canonical_smiles>
ClC1=CC=C2C(CCC3=C(/C2=C4CCN(CC\4)C(OCC)=O)N=CC=C3)=C1

> <standard_relation>
=

> <Publication_ID>
nan

> <predicted_activity_value>
nan

> <actual_activity_value>
0.7619538968712045

> <Compound>
Loratadine

> <standard_units>
uM

> hash
10847742968109876124

$$$$
28
XXILIB    08252103503D 0   0.00000     0.00000

 27 30  0     1  0            999 V2000
    1.1944    0.0290   -9.9766 Cl  0  0  0  0  0  1           0  0  0
   -0.6843   -0.0000    1.0213 O   0  0  0  0  0  2           0  0  0
    1.3623   -0.0000   -0.0000 O   0  0  0  0  0  2           0  0  0
   -4.3601    0.2480   -4.7689 N   0  0  0  0  0  3           0  0  0
   -0.5187   -0.0002   -1.2843 N   0  0  1  0  0  3           0  0  0
    0.2341   -0.1988   -8.5658 C   0  0  0  0  0  4           0  0  0
   -3.6227   -0.8113   -5.1802 C   0  0  0  0  0  4           0  0  0
   -5.6979    0.1472   -4.9297 C   0  0  0  0  0  4           0  0  0
   -4.1599   -1.9598   -5.7655 C   0  0  0  0  0  4           0  0  0
   -1.3274   -0.5939   -6.2664 C   0  0  0  0  0  4           0  0  0
   -1.4385   -1.5001   -7.3448 C   0  0  0  0  0  4           0  0  0
   -0.6343   -1.2873   -8.4853 C   0  0  0  0  0  4           0  0  0
    0.3131    0.7124   -7.5216 C   0  0  0  0  0  4           0  0  0
   -6.3322   -0.9510   -5.4873 C   0  0  0  0  0  4           0  0  0
   -5.5455   -2.0170   -5.9127 C   0  0  0  0  0  4           0  0  0
   -0.4718    0.5204   -6.3862 C   0  0  0  0  0  4           0  0  0
    0.0000    0.0000    0.0000 C   0  0  0  0  0  4           0  0  0
    2.0664   -0.0000    1.2579 C   0  0  0  0  0  4           0  0  0
   -1.9677   -0.0004   -1.4952 C   0  0  0  0  0  4           0  0  0
    0.3017    0.0932   -2.4987 C   0  0  0  0  0  4           0  0  0
   -2.1535   -0.7187   -5.0362 C   0  0  0  0  0  4           0  0  0
   -3.2573   -3.0722   -6.2248 C   0  0  0  0  0  4           0  0  0
   -2.4000   -2.6760   -7.4329 C   0  0  0  0  0  4           0  0  0
   -1.5972   -0.8896   -3.8068 C   0  0  0  0  0  4           0  0  0
   -2.3834   -1.0642   -2.5123 C   0  0  0  0  0  4           0  0  0
   -0.1045   -0.9717   -3.5182 C   0  0  0  0  0  4           0  0  0
    2.3008   -1.4384    1.6766 C   0  0  0  0  0  4           0  0  0
  1  6  1  0     0  0
  2 17  2  0     0  0
  3 17  1  0     0  0
  3 18  1  0     0  0
  4  7  1  0     0  0
  4  8  2  0     0  0
  5 17  1  0     0  0
  5 19  1  0     0  0
  5 20  1  0     0  0
  6 12  1  0     0  0
  6 13  2  0     0  0
  7  9  2  0     0  0
  7 21  1  0     0  0
  8 14  1  0     0  0
  9 15  1  0     0  0
  9 22  1  0     0  0
 10 11  1  0     0  0
 10 16  2  0     0  0
 10 21  1  0     0  0
 11 12  2  0     0  0
 11 23  1  0     0  0
 13 16  1  0     0  0
 14 15  2  0     0  0
 18 27  1  0     0  0
 19 25  1  0     0  0
 20 26  1  0     0  0
 21 24  2  0     0  0
 22 23  1  0     0  0
 24 25  1  0     0  0
 24 26  1  0     0  0
M  END
> <standard_type>
pIC50

> <# Confs.>
25

> <canonical_smiles>
ClC1=CC=C2C(CCC3=C(/C2=C4CCN(CC\4)C(OCC)=O)N=CC=C3)=C1

> <standard_relation>
=

> <Publication_ID>
nan

> <predicted_activity_value>
nan

> <actual_activity_value>
0.7619538968712045

> <Compound>
Loratadine

> <standard_units>
uM

> hash
10847742968109876124

$$$$
28
XXILIB    08252103503D 0   0.00000     0.00000

 27 30  0     1  0            999 V2000
    1.1231    0.8480   -9.9977 Cl  0  0  0  0  0  1           0  0  0
   -0.6843    0.0000    1.0213 O   0  0  0  0  0  2           0  0  0
    1.3623   -0.0000   -0.0000 O   0  0  0  0  0  2           0  0  0
   -4.4881    1.6705   -4.9032 N   0  0  0  0  0  3           0  0  0
   -0.5187   -0.0002   -1.2843 N   0  0  1  0  0  3           0  0  0
    0.1690    0.8386   -8.5645 C   0  0  0  0  0  4           0  0  0
   -3.6584    0.6167   -5.0942 C   0  0  0  0  0  4           0  0  0
   -5.8109    1.4223   -5.0221 C   0  0  0  0  0  4           0  0  0
   -4.0897   -0.6712   -5.4193 C   0  0  0  0  0  4           0  0  0
   -1.3800    0.7990   -6.2231 C   0  0  0  0  0  4           0  0  0
   -1.4076   -0.3145   -7.0924 C   0  0  0  0  0  4           0  0  0
   -0.6109   -0.2761   -8.2572 C   0  0  0  0  0  4           0  0  0
    0.1643    1.9476   -7.7299 C   0  0  0  0  0  4           0  0  0
   -6.3434    0.1808   -5.3289 C   0  0  0  0  0  4           0  0  0
   -5.4642   -0.8782   -5.5320 C   0  0  0  0  0  4           0  0  0
   -0.6138    1.9298   -6.5737 C   0  0  0  0  0  4           0  0  0
    0.0000    0.0000    0.0000 C   0  0  0  0  0  4           0  0  0
    2.0664   -0.0000    1.2579 C   0  0  0  0  0  4           0  0  0
    0.2986   -0.0002   -2.5004 C   0  0  0  0  0  4           0  0  0
   -1.9618   -0.0776   -1.5007 C   0  0  0  0  0  4           0  0  0
   -2.2037    0.8634   -4.9860 C   0  0  0  0  0  4           0  0  0
   -3.0910   -1.7711   -5.6545 C   0  0  0  0  0  4           0  0  0
   -2.2735   -1.5554   -6.9339 C   0  0  0  0  0  4           0  0  0
   -1.6464    0.9998   -3.7523 C   0  0  0  0  0  4           0  0  0
   -0.1506    1.0935   -3.4737 C   0  0  0  0  0  4           0  0  0
   -2.4344    1.0265   -2.4458 C   0  0  0  0  0  4           0  0  0
    2.3008   -1.4384    1.6766 C   0  0  0  0  0  4           0  0  0
  1  6  1  0     0  0
  2 17  2  0     0  0
  3 17  1  0     0  0
  3 18  1  0     0  0
  4  7  1  0     0  0
  4  8  2  0     0  0
  5 17  1  0     0  0
  5 19  1  0     0  0
  5 20  1  0     0  0
  6 12  1  0     0  0
  6 13  2  0     0  0
  7  9  2  0     0  0
  7 21  1  0     0  0
  8 14  1  0     0  0
  9 15  1  0     0  0
  9 22  1  0     0  0
 10 11  1  0     0  0
 10 16  2  0     0  0
 10 21  1  0     0  0
 11 12  2  0     0  0
 11 23  1  0     0  0
 13 16  1  0     0  0
 14 15  2  0     0  0
 18 27  1  0     0  0
 19 25  1  0     0  0
 20 26  1  0     0  0
 21 24  2  0     0  0
 22 23  1  0     0  0
 24 25  1  0     0  0
 24 26  1  0     0  0
M  END
> <standard_type>
pIC50

> <# Confs.>
25

> <canonical_smiles>
ClC1=CC=C2C(CCC3=C(/C2=C4CCN(CC\4)C(OCC)=O)N=CC=C3)=C1

> <standard_relation>
=

> <Publication_ID>
nan

> <predicted_activity_value>
nan

> <actual_activity_value>
0.7619538968712045

> <Compound>
Loratadine

> <standard_units>
uM

> hash
10847742968109876124

$$$$
28
XXILIB    08252103503D 0   0.00000     0.00000

 27 30  0     1  0            999 V2000
   -6.4223    4.9664   -5.8023 Cl  0  0  0  0  0  1           0  0  0
   -0.6843    0.0000    1.0213 O   0  0  0  0  0  2           0  0  0
    1.3623    0.0000    0.0000 O   0  0  0  0  0  2           0  0  0
   -1.2176   -0.8200   -6.6383 N   0  0  0  0  0  3           0  0  0
   -0.5187   -0.0002   -1.2843 N   0  0  1  0  0  3           0  0  0
   -5.1688    3.7979   -5.6266 C   0  0  0  0  0  4           0  0  0
   -1.2872    0.5245   -6.4319 C   0  0  0  0  0  4           0  0  0
   -0.5673   -1.2570   -7.7367 C   0  0  0  0  0  4           0  0  0
   -0.7437    1.4624   -7.3211 C   0  0  0  0  0  4           0  0  0
   -3.1388    1.9062   -5.3321 C   0  0  0  0  0  4           0  0  0
   -2.8153    3.2317   -5.6760 C   0  0  0  0  0  4           0  0  0
   -3.8391    4.1776   -5.8150 C   0  0  0  0  0  4           0  0  0
   -5.4936    2.4797   -5.3101 C   0  0  0  0  0  4           0  0  0
    0.0168   -0.4212   -8.6642 C   0  0  0  0  0  4           0  0  0
   -0.0813    0.9478   -8.4490 C   0  0  0  0  0  4           0  0  0
   -4.4795    1.5323   -5.1710 C   0  0  0  0  0  4           0  0  0
    0.0000    0.0000    0.0000 C   0  0  0  0  0  4           0  0  0
    2.0664    0.0000    1.2579 C   0  0  0  0  0  4           0  0  0
    0.3308   -0.0002   -2.4761 C   0  0  0  0  0  4           0  0  0
   -1.9630    0.0164   -1.4978 C   0  0  0  0  0  4           0  0  0
   -2.0367    0.9202   -5.2109 C   0  0  0  0  0  4           0  0  0
   -0.8339    2.9715   -7.2161 C   0  0  0  0  0  4           0  0  0
   -1.3763    3.6094   -5.9314 C   0  0  0  0  0  4           0  0  0
   -1.6459    0.4838   -3.9811 C   0  0  0  0  0  4           0  0  0
   -0.4262   -0.3988   -3.7434 C   0  0  0  0  0  4           0  0  0
   -2.3460    0.8952   -2.6895 C   0  0  0  0  0  4           0  0  0
    3.5560    0.0000    0.9741 C   0  0  0  0  0  4           0  0  0
  1  6  1  0     0  0
  2 17  2  0     0  0
  3 17  1  0     0  0
  3 18  1  0     0  0
  4  7  1  0     0  0
  4  8  2  0     0  0
  5 17  1  0     0  0
  5 19  1  0     0  0
  5 20  1  0     0  0
  6 12  1  0     0  0
  6 13  2  0     0  0
  7  9  2  0     0  0
  7 21  1  0     0  0
  8 14  1  0     0  0
  9 15  1  0     0  0
  9 22  1  0     0  0
 10 11  1  0     0  0
 10 16  2  0     0  0
 10 21  1  0     0  0
 11 12  2  0     0  0
 11 23  1  0     0  0
 13 16  1  0     0  0
 14 15  2  0     0  0
 18 27  1  0     0  0
 19 25  1  0     0  0
 20 26  1  0     0  0
 21 24  2  0     0  0
 22 23  1  0     0  0
 24 25  1  0     0  0
 24 26  1  0     0  0
M  END
> <standard_type>
pIC50

> <# Confs.>
25

> <canonical_smiles>
ClC1=CC=C2C(CCC3=C(/C2=C4CCN(CC\4)C(OCC)=O)N=CC=C3)=C1

> <standard_relation>
=

> <Publication_ID>
nan

> <predicted_activity_value>
nan

> <actual_activity_value>
0.7619538968712045

> <Compound>
Loratadine

> <standard_units>
uM

> hash
10847742968109876124

$$$$
28
XXILIB    08252103503D 0   0.00000     0.00000

 27 30  0     1  0            999 V2000
   -6.4003   -5.0188   -5.7805 Cl  0  0  0  0  0  1           0  0  0
   -0.6843    0.0000    1.0213 O   0  0  0  0  0  2           0  0  0
    1.3623    0.0000    0.0000 O   0  0  0  0  0  2           0  0  0
   -1.2020    0.7450   -6.6639 N   0  0  0  0  0  3           0  0  0
   -0.5187   -0.0002   -1.2843 N   0  0  1  0  0  3           0  0  0
   -5.1482   -3.8492   -5.6055 C   0  0  0  0  0  4           0  0  0
   -1.2640   -0.5942   -6.4251 C   0  0  0  0  0  4           0  0  0
   -0.5508    1.1585   -7.7708 C   0  0  0  0  0  4           0  0  0
   -0.7112   -1.5510   -7.2883 C   0  0  0  0  0  4           0  0  0
   -3.1210   -1.9546   -5.3138 C   0  0  0  0  0  4           0  0  0
   -2.7934   -3.2867   -5.6269 C   0  0  0  0  0  4           0  0  0
   -3.8159   -4.2338   -5.7648 C   0  0  0  0  0  4           0  0  0
   -5.4762   -2.5250   -5.3185 C   0  0  0  0  0  4           0  0  0
    0.0413    0.3034   -8.6755 C   0  0  0  0  0  4           0  0  0
   -0.0483   -1.0607   -8.4266 C   0  0  0  0  0  4           0  0  0
   -4.4633   -1.5766   -5.1799 C   0  0  0  0  0  4           0  0  0
    0.0000    0.0000    0.0000 C   0  0  0  0  0  4           0  0  0
    2.0664    0.0000    1.2579 C   0  0  0  0  0  4           0  0  0
    0.3316   -0.0002   -2.4757 C   0  0  0  0  0  4           0  0  0
   -1.9631   -0.0196   -1.4976 C   0  0  0  0  0  4           0  0  0
   -2.0207   -0.9660   -5.2019 C   0  0  0  0  0  4           0  0  0
   -0.7896   -3.0579   -7.1433 C   0  0  0  0  0  4           0  0  0
   -1.3508   -3.6681   -5.8529 C   0  0  0  0  0  4           0  0  0
   -1.6396   -0.5063   -3.9774 C   0  0  0  0  0  4           0  0  0
   -0.4268    0.3868   -3.7457 C   0  0  0  0  0  4           0  0  0
   -2.3455   -0.9044   -2.6848 C   0  0  0  0  0  4           0  0  0
    3.5560    0.0000    0.9741 C   0  0  0  0  0  4           0  0  0
  1  6  1  0     0  0
  2 17  2  0     0  0
  3 17  1  0     0  0
  3 18  1  0     0  0
  4  7  1  0     0  0
  4  8  2  0     0  0
  5 17  1  0     0  0
  5 19  1  0     0  0
  5 20  1  0     0  0
  6 12  1  0     0  0
  6 13  2  0     0  0
  7  9  2  0     0  0
  7 21  1  0     0  0
  8 14  1  0     0  0
  9 15  1  0     0  0
  9 22  1  0     0  0
 10 11  1  0     0  0
 10 16  2  0     0  0
 10 21  1  0     0  0
 11 12  2  0     0  0
 11 23  1  0     0  0
 13 16  1  0     0  0
 14 15  2  0     0  0
 18 27  1  0     0  0
 19 25  1  0     0  0
 20 26  1  0     0  0
 21 24  2  0     0  0
 22 23  1  0     0  0
 24 25  1  0     0  0
 24 26  1  0     0  0
M  END
> <standard_type>
pIC50

> <# Confs.>
25

> <canonical_smiles>
ClC1=CC=C2C(CCC3=C(/C2=C4CCN(CC\4)C(OCC)=O)N=CC=C3)=C1

> <standard_relation>
=

> <Publication_ID>
nan

> <predicted_activity_value>
nan

> <actual_activity_value>
0.7619538968712045

> <Compound>
Loratadine

> <standard_units>
uM

> hash
10847742968109876124

$$$$
28
XXILIB    08252103503D 0   0.00000     0.00000

 27 30  0     1  0            999 V2000
    2.0591    1.6639   -9.5762 Cl  0  0  0  0  0  1           0  0  0
   -0.6843   -0.0000    1.0213 O   0  0  0  0  0  2           0  0  0
    1.3623    0.0000    0.0000 O   0  0  0  0  0  2           0  0  0
   -3.9289    2.5472   -4.6239 N   0  0  0  0  0  3           0  0  0
   -0.5187   -0.0002   -1.2843 N   0  0  1  0  0  3           0  0  0
    0.9926    1.7036   -8.2239 C   0  0  0  0  0  4           0  0  0
   -2.6395    2.9435   -4.8035 C   0  0  0  0  0  4           0  0  0
   -4.8846    3.4982   -4.5739 C   0  0  0  0  0  4           0  0  0
   -2.2751    4.2872   -4.9727 C   0  0  0  0  0  4           0  0  0
   -0.7310    1.7640   -6.0329 C   0  0  0  0  0  4           0  0  0
    0.2417    2.7686   -6.1828 C   0  0  0  0  0  4           0  0  0
    1.1066    2.7292   -7.2837 C   0  0  0  0  0  4           0  0  0
    0.0186    0.7157   -8.0845 C   0  0  0  0  0  4           0  0  0
   -4.6312    4.8457   -4.7084 C   0  0  0  0  0  4           0  0  0
   -3.3137    5.2336   -4.9150 C   0  0  0  0  0  4           0  0  0
   -0.8472    0.7486   -6.9921 C   0  0  0  0  0  4           0  0  0
    0.0000    0.0000    0.0000 C   0  0  0  0  0  4           0  0  0
    2.0664    0.0000    1.2579 C   0  0  0  0  0  4           0  0  0
   -1.9607   -0.0004   -1.5052 C   0  0  0  0  0  4           0  0  0
    0.3369   -0.0323   -2.4721 C   0  0  0  0  0  4           0  0  0
   -1.6521    1.8323   -4.8737 C   0  0  0  0  0  4           0  0  0
   -0.8871    4.8260   -5.2552 C   0  0  0  0  0  4           0  0  0
    0.3221    3.8878   -5.1743 C   0  0  0  0  0  4           0  0  0
   -1.5171    0.9508   -3.8437 C   0  0  0  0  0  4           0  0  0
   -2.3680    1.0140   -2.5778 C   0  0  0  0  0  4           0  0  0
   -0.4516   -0.1341   -3.7783 C   0  0  0  0  0  4           0  0  0
    3.5560    0.0000    0.9741 C   0  0  0  0  0  4           0  0  0
  1  6  1  0     0  0
  2 17  2  0     0  0
  3 17  1  0     0  0
  3 18  1  0     0  0
  4  7  1  0     0  0
  4  8  2  0     0  0
  5 17  1  0     0  0
  5 19  1  0     0  0
  5 20  1  0     0  0
  6 12  1  0     0  0
  6 13  2  0     0  0
  7  9  2  0     0  0
  7 21  1  0     0  0
  8 14  1  0     0  0
  9 15  1  0     0  0
  9 22  1  0     0  0
 10 11  1  0     0  0
 10 16  2  0     0  0
 10 21  1  0     0  0
 11 12  2  0     0  0
 11 23  1  0     0  0
 13 16  1  0     0  0
 14 15  2  0     0  0
 18 27  1  0     0  0
 19 25  1  0     0  0
 20 26  1  0     0  0
 21 24  2  0     0  0
 22 23  1  0     0  0
 24 25  1  0     0  0
 24 26  1  0     0  0
M  END
> <standard_type>
pIC50

> <# Confs.>
25

> <canonical_smiles>
ClC1=CC=C2C(CCC3=C(/C2=C4CCN(CC\4)C(OCC)=O)N=CC=C3)=C1

> <standard_relation>
=

> <Publication_ID>
nan

> <predicted_activity_value>
nan

> <actual_activity_value>
0.7619538968712045

> <Compound>
Loratadine

> <standard_units>
uM

> hash
10847742968109876124

$$$$
28
XXILIB    08252103503D 0   0.00000     0.00000

 27 30  0     1  0            999 V2000
    2.1060   -1.7974   -9.5238 Cl  0  0  0  0  0  1           0  0  0
   -0.6843   -0.0000    1.0213 O   0  0  0  0  0  2           0  0  0
    1.3623    0.0000    0.0000 O   0  0  0  0  0  2           0  0  0
   -3.9116   -2.6048   -4.5858 N   0  0  0  0  0  3           0  0  0
   -0.5187   -0.0002   -1.2843 N   0  0  1  0  0  3           0  0  0
    1.0309   -1.8129   -8.1777 C   0  0  0  0  0  4           0  0  0
   -2.6201   -2.9987   -4.7556 C   0  0  0  0  0  4           0  0  0
   -4.8629   -3.5592   -4.5169 C   0  0  0  0  0  4           0  0  0
   -2.2498   -4.3442   -4.8960 C   0  0  0  0  0  4           0  0  0
   -0.7084   -1.8354   -5.9980 C   0  0  0  0  0  4           0  0  0
    0.2693   -2.8389   -6.1208 C   0  0  0  0  0  4           0  0  0
    1.1422   -2.8186   -7.2159 C   0  0  0  0  0  4           0  0  0
    0.0529   -0.8254   -8.0647 C   0  0  0  0  0  4           0  0  0
   -4.6032   -4.9080   -4.6230 C   0  0  0  0  0  4           0  0  0
   -3.2840   -5.2940   -4.8200 C   0  0  0  0  0  4           0  0  0
   -0.8204   -0.8392   -6.9778 C   0  0  0  0  0  4           0  0  0
    0.0000    0.0000    0.0000 C   0  0  0  0  0  4           0  0  0
    2.0664    0.0000    1.2579 C   0  0  0  0  0  4           0  0  0
   -1.9605   -0.0004   -1.5057 C   0  0  0  0  0  4           0  0  0
    0.3371    0.0308   -2.4720 C   0  0  0  0  0  4           0  0  0
   -1.6369   -1.8844   -4.8437 C   0  0  0  0  0  4           0  0  0
   -0.8588   -4.8822   -5.1649 C   0  0  0  0  0  4           0  0  0
    0.3459   -3.9380   -5.0899 C   0  0  0  0  0  4           0  0  0
   -1.5113   -0.9824   -3.8306 C   0  0  0  0  0  4           0  0  0
   -2.3679   -1.0260   -2.5673 C   0  0  0  0  0  4           0  0  0
   -0.4516    0.1093   -3.7801 C   0  0  0  0  0  4           0  0  0
    3.5560    0.0000    0.9741 C   0  0  0  0  0  4           0  0  0
  1  6  1  0     0  0
  2 17  2  0     0  0
  3 17  1  0     0  0
  3 18  1  0     0  0
  4  7  1  0     0  0
  4  8  2  0     0  0
  5 17  1  0     0  0
  5 19  1  0     0  0
  5 20  1  0     0  0
  6 12  1  0     0  0
  6 13  2  0     0  0
  7  9  2  0     0  0
  7 21  1  0     0  0
  8 14  1  0     0  0
  9 15  1  0     0  0
  9 22  1  0     0  0
 10 11  1  0     0  0
 10 16  2  0     0  0
 10 21  1  0     0  0
 11 12  2  0     0  0
 11 23  1  0     0  0
 13 16  1  0     0  0
 14 15  2  0     0  0
 18 27  1  0     0  0
 19 25  1  0     0  0
 20 26  1  0     0  0
 21 24  2  0     0  0
 22 23  1  0     0  0
 24 25  1  0     0  0
 24 26  1  0     0  0
M  END
> <standard_type>
pIC50

> <# Confs.>
25

> <canonical_smiles>
ClC1=CC=C2C(CCC3=C(/C2=C4CCN(CC\4)C(OCC)=O)N=CC=C3)=C1

> <standard_relation>
=

> <Publication_ID>
nan

> <predicted_activity_value>
nan

> <actual_activity_value>
0.7619538968712045

> <Compound>
Loratadine

> <standard_units>
uM

> hash
10847742968109876124

$$$$
28
XXILIB    08252103503D 0   0.00000     0.00000

 27 30  0     1  0            999 V2000
    0.3447    1.5203  -10.1828 Cl  0  0  0  0  0  1           0  0  0
   -0.6843    0.0000    1.0213 O   0  0  0  0  0  2           0  0  0
    1.3623    0.0000    0.0000 O   0  0  0  0  0  2           0  0  0
   -3.3264   -2.7933   -4.7779 N   0  0  0  0  0  3           0  0  0
   -0.5187   -0.0002   -1.2843 N   0  0  1  0  0  3           0  0  0
   -0.3580    0.8609   -8.7547 C   0  0  0  0  0  4           0  0  0
   -3.3710   -1.5700   -5.3744 C   0  0  0  0  0  4           0  0  0
   -4.4083   -3.5916   -4.8900 C   0  0  0  0  0  4           0  0  0
   -4.4742   -1.1241   -6.1164 C   0  0  0  0  0  4           0  0  0
   -1.4887   -0.1993   -6.4351 C   0  0  0  0  0  4           0  0  0
   -2.1668    0.8076   -7.1457 C   0  0  0  0  0  4           0  0  0
   -1.5893    1.3405   -8.3053 C   0  0  0  0  0  4           0  0  0
    0.3033   -0.1550   -8.0664 C   0  0  0  0  0  4           0  0  0
   -5.5472   -3.2447   -5.5840 C   0  0  0  0  0  4           0  0  0
   -5.5694   -2.0014   -6.2031 C   0  0  0  0  0  4           0  0  0
   -0.2657   -0.6909   -6.9116 C   0  0  0  0  0  4           0  0  0
    0.0000    0.0000    0.0000 C   0  0  0  0  0  4           0  0  0
    2.0664    0.0000    1.2579 C   0  0  0  0  0  4           0  0  0
    0.3298   -0.0002   -2.4783 C   0  0  0  0  0  4           0  0  0
   -1.9640   -0.0250   -1.4961 C   0  0  0  0  0  4           0  0  0
   -2.1292   -0.7645   -5.2230 C   0  0  0  0  0  4           0  0  0
   -4.5946    0.1871   -6.8673 C   0  0  0  0  0  4           0  0  0
   -3.5248    1.2690   -6.6762 C   0  0  0  0  0  4           0  0  0
   -1.6524   -0.4527   -3.9855 C   0  0  0  0  0  4           0  0  0
   -0.4281    0.4209   -3.7379 C   0  0  0  0  0  4           0  0  0
   -2.3369   -0.8963   -2.6954 C   0  0  0  0  0  4           0  0  0
    3.5560    0.0000    0.9741 C   0  0  0  0  0  4           0  0  0
  1  6  1  0     0  0
  2 17  2  0     0  0
  3 17  1  0     0  0
  3 18  1  0     0  0
  4  7  1  0     0  0
  4  8  2  0     0  0
  5 17  1  0     0  0
  5 19  1  0     0  0
  5 20  1  0     0  0
  6 12  1  0     0  0
  6 13  2  0     0  0
  7  9  2  0     0  0
  7 21  1  0     0  0
  8 14  1  0     0  0
  9 15  1  0     0  0
  9 22  1  0     0  0
 10 11  1  0     0  0
 10 16  2  0     0  0
 10 21  1  0     0  0
 11 12  2  0     0  0
 11 23  1  0     0  0
 13 16  1  0     0  0
 14 15  2  0     0  0
 18 27  1  0     0  0
 19 25  1  0     0  0
 20 26  1  0     0  0
 21 24  2  0     0  0
 22 23  1  0     0  0
 24 25  1  0     0  0
 24 26  1  0     0  0
M  END
> <standard_type>
pIC50

> <# Confs.>
25

> <canonical_smiles>
ClC1=CC=C2C(CCC3=C(/C2=C4CCN(CC\4)C(OCC)=O)N=CC=C3)=C1

> <standard_relation>
=

> <Publication_ID>
nan

> <predicted_activity_value>
nan

> <actual_activity_value>
0.7619538968712045

> <Compound>
Loratadine

> <standard_units>
uM

> hash
10847742968109876124

$$$$
28
XXILIB    08252103503D 0   0.00000     0.00000

 27 30  0     1  0            999 V2000
    0.2517   -2.2331  -10.0286 Cl  0  0  0  0  0  1           0  0  0
   -0.6843   -0.0000    1.0213 O   0  0  0  0  0  2           0  0  0
    1.3623    0.0000   -0.0000 O   0  0  0  0  0  2           0  0  0
   -3.5135    2.4119   -4.9822 N   0  0  0  0  0  3           0  0  0
   -0.5187   -0.0002   -1.2843 N   0  0  1  0  0  3           0  0  0
   -0.4466   -1.4686   -8.6520 C   0  0  0  0  0  4           0  0  0
   -3.5020    1.1304   -5.4423 C   0  0  0  0  0  4           0  0  0
   -4.6426    3.1320   -5.1471 C   0  0  0  0  0  4           0  0  0
   -4.5961    0.5441   -6.0950 C   0  0  0  0  0  4           0  0  0
   -1.5716   -0.2346   -6.4174 C   0  0  0  0  0  4           0  0  0
   -2.2055   -1.3509   -6.9923 C   0  0  0  0  0  4           0  0  0
   -1.6306   -1.9705   -8.1090 C   0  0  0  0  0  4           0  0  0
    0.1694   -0.3467   -8.0993 C   0  0  0  0  0  4           0  0  0
   -5.7764    2.6483   -5.7640 C   0  0  0  0  0  4           0  0  0
   -5.7423    1.3446   -6.2422 C   0  0  0  0  0  4           0  0  0
   -0.3972    0.2753   -6.9875 C   0  0  0  0  0  4           0  0  0
    0.0000    0.0000    0.0000 C   0  0  0  0  0  4           0  0  0
    2.0664    0.0000    1.2579 C   0  0  0  0  0  4           0  0  0
   -1.9647   -0.0004   -1.4910 C   0  0  0  0  0  4           0  0  0
    0.3263    0.0106   -2.4806 C   0  0  0  0  0  4           0  0  0
   -2.2113    0.4173   -5.2496 C   0  0  0  0  0  4           0  0  0
   -4.6586   -0.8474   -6.6933 C   0  0  0  0  0  4           0  0  0
   -3.5179   -1.8381   -6.4281 C   0  0  0  0  0  4           0  0  0
   -1.6841    0.2600   -4.0033 C   0  0  0  0  0  4           0  0  0
   -2.3577    0.7876   -2.7405 C   0  0  0  0  0  4           0  0  0
   -0.4048   -0.5170   -3.7153 C   0  0  0  0  0  4           0  0  0
    2.3008    1.4384    1.6766 C   0  0  0  0  0  4           0  0  0
  1  6  1  0     0  0
  2 17  2  0     0  0
  3 17  1  0     0  0
  3 18  1  0     0  0
  4  7  1  0     0  0
  4  8  2  0     0  0
  5 17  1  0     0  0
  5 19  1  0     0  0
  5 20  1  0     0  0
  6 12  1  0     0  0
  6 13  2  0     0  0
  7  9  2  0     0  0
  7 21  1  0     0  0
  8 14  1  0     0  0
  9 15  1  0     0  0
  9 22  1  0     0  0
 10 11  1  0     0  0
 10 16  2  0     0  0
 10 21  1  0     0  0
 11 12  2  0     0  0
 11 23  1  0     0  0
 13 16  1  0     0  0
 14 15  2  0     0  0
 18 27  1  0     0  0
 19 25  1  0     0  0
 20 26  1  0     0  0
 21 24  2  0     0  0
 22 23  1  0     0  0
 24 25  1  0     0  0
 24 26  1  0     0  0
M  END
> <standard_type>
pIC50

> <# Confs.>
25

> <canonical_smiles>
ClC1=CC=C2C(CCC3=C(/C2=C4CCN(CC\4)C(OCC)=O)N=CC=C3)=C1

> <standard_relation>
=

> <Publication_ID>
nan

> <predicted_activity_value>
nan

> <actual_activity_value>
0.7619538968712045

> <Compound>
Loratadine

> <standard_units>
uM

> hash
10847742968109876124

$$$$
28
XXILIB    08252103503D 0   0.00000     0.00000

 27 30  0     1  0            999 V2000
   -7.0187   -4.4460   -5.4883 Cl  0  0  0  0  0  1           0  0  0
   -0.6843   -0.0000    1.0213 O   0  0  0  0  0  2           0  0  0
    1.3623    0.0000    0.0000 O   0  0  0  0  0  2           0  0  0
    0.0197   -1.2249   -6.4340 N   0  0  0  0  0  3           0  0  0
   -0.5187   -0.0002   -1.2843 N   0  0  1  0  0  3           0  0  0
   -5.5717   -3.5176   -5.3800 C   0  0  0  0  0  4           0  0  0
   -1.2924   -0.8640   -6.4044 C   0  0  0  0  0  4           0  0  0
    0.7170   -0.9852   -7.5642 C   0  0  0  0  0  4           0  0  0
   -1.9528   -0.3069   -7.5088 C   0  0  0  0  0  4           0  0  0
   -3.2295   -2.0148   -5.2001 C   0  0  0  0  0  4           0  0  0
   -4.3733   -1.4566   -5.8011 C   0  0  0  0  0  4           0  0  0
   -5.5469   -2.2159   -5.8837 C   0  0  0  0  0  4           0  0  0
   -4.4350   -4.0768   -4.7973 C   0  0  0  0  0  4           0  0  0
    0.1715   -0.4160   -8.6944 C   0  0  0  0  0  4           0  0  0
   -1.1766   -0.0835   -8.6595 C   0  0  0  0  0  4           0  0  0
   -3.2620   -3.3276   -4.7117 C   0  0  0  0  0  4           0  0  0
    0.0000    0.0000    0.0000 C   0  0  0  0  0  4           0  0  0
    2.0664    0.0000    1.2579 C   0  0  0  0  0  4           0  0  0
   -1.9633   -0.0004   -1.5018 C   0  0  0  0  0  4           0  0  0
    0.3349   -0.0081   -2.4748 C   0  0  0  0  0  4           0  0  0
   -1.9947   -1.1935   -5.1372 C   0  0  0  0  0  4           0  0  0
   -3.4263    0.0317   -7.6111 C   0  0  0  0  0  4           0  0  0
   -4.3151   -0.0577   -6.3652 C   0  0  0  0  0  4           0  0  0
   -1.6061   -0.6648   -3.9433 C   0  0  0  0  0  4           0  0  0
   -2.3537   -0.9450   -2.6397 C   0  0  0  0  0  4           0  0  0
   -0.4397    0.2957   -3.7567 C   0  0  0  0  0  4           0  0  0
    3.5560    0.0000    0.9741 C   0  0  0  0  0  4           0  0  0
  1  6  1  0     0  0
  2 17  2  0     0  0
  3 17  1  0     0  0
  3 18  1  0     0  0
  4  7  1  0     0  0
  4  8  2  0     0  0
  5 17  1  0     0  0
  5 19  1  0     0  0
  5 20  1  0     0  0
  6 12  1  0     0  0
  6 13  2  0     0  0
  7  9  2  0     0  0
  7 21  1  0     0  0
  8 14  1  0     0  0
  9 15  1  0     0  0
  9 22  1  0     0  0
 10 11  1  0     0  0
 10 16  2  0     0  0
 10 21  1  0     0  0
 11 12  2  0     0  0
 11 23  1  0     0  0
 13 16  1  0     0  0
 14 15  2  0     0  0
 18 27  1  0     0  0
 19 25  1  0     0  0
 20 26  1  0     0  0
 21 24  2  0     0  0
 22 23  1  0     0  0
 24 25  1  0     0  0
 24 26  1  0     0  0
M  END
> <standard_type>
pIC50

> <# Confs.>
25

> <canonical_smiles>
ClC1=CC=C2C(CCC3=C(/C2=C4CCN(CC\4)C(OCC)=O)N=CC=C3)=C1

> <standard_relation>
=

> <Publication_ID>
nan

> <predicted_activity_value>
nan

> <actual_activity_value>
0.7619538968712045

> <Compound>
Loratadine

> <standard_units>
uM

> hash
10847742968109876124

$$$$
28
XXILIB    08252103503D 0   0.00000     0.00000

 27 30  0     1  0            999 V2000
   -7.3738    3.6095   -5.8046 Cl  0  0  0  0  0  1           0  0  0
   -0.6843   -0.0000    1.0213 O   0  0  0  0  0  2           0  0  0
    1.3623    0.0000   -0.0000 O   0  0  0  0  0  2           0  0  0
   -0.2270    0.6619   -6.6518 N   0  0  0  0  0  3           0  0  0
   -0.5187   -0.0002   -1.2843 N   0  0  1  0  0  3           0  0  0
   -5.8705    2.7871   -5.6274 C   0  0  0  0  0  4           0  0  0
   -1.5039    0.2291   -6.4658 C   0  0  0  0  0  4           0  0  0
    0.4147    0.2777   -7.7750 C   0  0  0  0  0  4           0  0  0
   -2.1886   -0.5474   -7.4117 C   0  0  0  0  0  4           0  0  0
   -3.4371    1.4581   -5.3404 C   0  0  0  0  0  4           0  0  0
   -4.5744    0.7474   -5.7673 C   0  0  0  0  0  4           0  0  0
   -5.7940    1.4212   -5.9057 C   0  0  0  0  0  4           0  0  0
   -4.7418    3.4943   -5.2147 C   0  0  0  0  0  4           0  0  0
   -0.1555   -0.5098   -8.7515 C   0  0  0  0  0  4           0  0  0
   -1.4705   -0.9151   -8.5631 C   0  0  0  0  0  4           0  0  0
   -3.5233    2.8309   -5.0748 C   0  0  0  0  0  4           0  0  0
    0.0000    0.0000    0.0000 C   0  0  0  0  0  4           0  0  0
    2.0664    0.0000    1.2579 C   0  0  0  0  0  4           0  0  0
   -1.9639   -0.0004   -1.4962 C   0  0  0  0  0  4           0  0  0
    0.3298    0.0161   -2.4778 C   0  0  0  0  0  4           0  0  0
   -2.1512    0.7265   -5.2241 C   0  0  0  0  0  4           0  0  0
   -3.6370   -0.9892   -7.3495 C   0  0  0  0  0  4           0  0  0
   -4.4615   -0.7239   -6.0848 C   0  0  0  0  0  4           0  0  0
   -1.6606    0.4260   -3.9893 C   0  0  0  0  0  4           0  0  0
   -2.3547    0.8590   -2.6988 C   0  0  0  0  0  4           0  0  0
   -0.4190   -0.4203   -3.7373 C   0  0  0  0  0  4           0  0  0
    2.3008    1.4384    1.6766 C   0  0  0  0  0  4           0  0  0
  1  6  1  0     0  0
  2 17  2  0     0  0
  3 17  1  0     0  0
  3 18  1  0     0  0
  4  7  1  0     0  0
  4  8  2  0     0  0
  5 17  1  0     0  0
  5 19  1  0     0  0
  5 20  1  0     0  0
  6 12  1  0     0  0
  6 13  2  0     0  0
  7  9  2  0     0  0
  7 21  1  0     0  0
  8 14  1  0     0  0
  9 15  1  0     0  0
  9 22  1  0     0  0
 10 11  1  0     0  0
 10 16  2  0     0  0
 10 21  1  0     0  0
 11 12  2  0     0  0
 11 23  1  0     0  0
 13 16  1  0     0  0
 14 15  2  0     0  0
 18 27  1  0     0  0
 19 25  1  0     0  0
 20 26  1  0     0  0
 21 24  2  0     0  0
 22 23  1  0     0  0
 24 25  1  0     0  0
 24 26  1  0     0  0
M  END
> <standard_type>
pIC50

> <# Confs.>
25

> <canonical_smiles>
ClC1=CC=C2C(CCC3=C(/C2=C4CCN(CC\4)C(OCC)=O)N=CC=C3)=C1

> <standard_relation>
=

> <Publication_ID>
nan

> <predicted_activity_value>
nan

> <actual_activity_value>
0.7619538968712045

> <Compound>
Loratadine

> <standard_units>
uM

> hash
10847742968109876124

$$$$
28
XXILIB    08252103503D 0   0.00000     0.00000

 27 30  0     1  0            999 V2000
   -8.3994   -1.2573   -5.1316 Cl  0  0  0  0  0  1           0  0  0
   -0.6843    0.0000    1.0213 O   0  0  0  0  0  2           0  0  0
    1.3623    0.0000   -0.0000 O   0  0  0  0  0  2           0  0  0
   -0.7371   -2.3203   -6.1947 N   0  0  0  0  0  3           0  0  0
   -0.5187   -0.0002   -1.2843 N   0  0  1  0  0  3           0  0  0
   -6.6853   -1.3537   -4.9902 C   0  0  0  0  0  4           0  0  0
   -1.7531   -2.7274   -5.3859 C   0  0  0  0  0  4           0  0  0
   -0.0868   -3.2566   -6.9160 C   0  0  0  0  0  4           0  0  0
   -2.1677   -4.0647   -5.3006 C   0  0  0  0  0  4           0  0  0
   -3.9115   -1.5085   -4.7618 C   0  0  0  0  0  4           0  0  0
   -4.7146   -2.5175   -4.2002 C   0  0  0  0  0  4           0  0  0
   -6.1074   -2.4303   -4.3147 C   0  0  0  0  0  4           0  0  0
   -5.8893   -0.3602   -5.5592 C   0  0  0  0  0  4           0  0  0
   -0.4021   -4.5976   -6.8910 C   0  0  0  0  0  4           0  0  0
   -1.4555   -4.9950   -6.0777 C   0  0  0  0  0  4           0  0  0
   -4.5017   -0.4396   -5.4496 C   0  0  0  0  0  4           0  0  0
    0.0000    0.0000    0.0000 C   0  0  0  0  0  4           0  0  0
    2.0664    0.0000    1.2579 C   0  0  0  0  0  4           0  0  0
    0.3022   -0.0002   -2.4960 C   0  0  0  0  0  4           0  0  0
   -1.9682    0.0434   -1.4620 C   0  0  0  0  0  4           0  0  0
   -2.4390   -1.6305   -4.6513 C   0  0  0  0  0  4           0  0  0
   -3.3302   -4.6079   -4.4935 C   0  0  0  0  0  4           0  0  0
   -4.0653   -3.6912   -3.5089 C   0  0  0  0  0  4           0  0  0
   -1.7490   -0.8204   -3.8009 C   0  0  0  0  0  4           0  0  0
   -0.2487   -0.9559   -3.5590 C   0  0  0  0  0  4           0  0  0
   -2.3917    0.2379   -2.9172 C   0  0  0  0  0  4           0  0  0
    2.3008    1.4384    1.6766 C   0  0  0  0  0  4           0  0  0
  1  6  1  0     0  0
  2 17  2  0     0  0
  3 17  1  0     0  0
  3 18  1  0     0  0
  4  7  1  0     0  0
  4  8  2  0     0  0
  5 17  1  0     0  0
  5 19  1  0     0  0
  5 20  1  0     0  0
  6 12  1  0     0  0
  6 13  2  0     0  0
  7  9  2  0     0  0
  7 21  1  0     0  0
  8 14  1  0     0  0
  9 15  1  0     0  0
  9 22  1  0     0  0
 10 11  1  0     0  0
 10 16  2  0     0  0
 10 21  1  0     0  0
 11 12  2  0     0  0
 11 23  1  0     0  0
 13 16  1  0     0  0
 14 15  2  0     0  0
 18 27  1  0     0  0
 19 25  1  0     0  0
 20 26  1  0     0  0
 21 24  2  0     0  0
 22 23  1  0     0  0
 24 25  1  0     0  0
 24 26  1  0     0  0
M  END
> <standard_type>
pIC50

> <# Confs.>
25

> <canonical_smiles>
ClC1=CC=C2C(CCC3=C(/C2=C4CCN(CC\4)C(OCC)=O)N=CC=C3)=C1

> <standard_relation>
=

> <Publication_ID>
nan

> <predicted_activity_value>
nan

> <actual_activity_value>
0.7619538968712045

> <Compound>
Loratadine

> <standard_units>
uM

> hash
10847742968109876124

$$$$
28
XXILIB    08252103503D 0   0.00000     0.00000

 27 30  0     1  0            999 V2000
   -8.3994   -1.2573   -5.1316 Cl  0  0  0  0  0  1           0  0  0
   -0.6843    0.0000    1.0213 O   0  0  0  0  0  2           0  0  0
    1.3623   -0.0000   -0.0000 O   0  0  0  0  0  2           0  0  0
   -0.7371   -2.3203   -6.1947 N   0  0  0  0  0  3           0  0  0
   -0.5187   -0.0002   -1.2843 N   0  0  1  0  0  3           0  0  0
   -6.6853   -1.3537   -4.9902 C   0  0  0  0  0  4           0  0  0
   -1.7531   -2.7274   -5.3859 C   0  0  0  0  0  4           0  0  0
   -0.0868   -3.2566   -6.9160 C   0  0  0  0  0  4           0  0  0
   -2.1677   -4.0647   -5.3006 C   0  0  0  0  0  4           0  0  0
   -3.9115   -1.5085   -4.7618 C   0  0  0  0  0  4           0  0  0
   -4.7146   -2.5175   -4.2002 C   0  0  0  0  0  4           0  0  0
   -6.1074   -2.4303   -4.3147 C   0  0  0  0  0  4           0  0  0
   -5.8893   -0.3602   -5.5592 C   0  0  0  0  0  4           0  0  0
   -0.4021   -4.5976   -6.8910 C   0  0  0  0  0  4           0  0  0
   -1.4555   -4.9950   -6.0777 C   0  0  0  0  0  4           0  0  0
   -4.5017   -0.4396   -5.4496 C   0  0  0  0  0  4           0  0  0
    0.0000    0.0000    0.0000 C   0  0  0  0  0  4           0  0  0
    2.0664   -0.0000    1.2579 C   0  0  0  0  0  4           0  0  0
    0.3022   -0.0002   -2.4960 C   0  0  0  0  0  4           0  0  0
   -1.9682    0.0434   -1.4620 C   0  0  0  0  0  4           0  0  0
   -2.4390   -1.6305   -4.6513 C   0  0  0  0  0  4           0  0  0
   -3.3302   -4.6079   -4.4935 C   0  0  0  0  0  4           0  0  0
   -4.0653   -3.6912   -3.5089 C   0  0  0  0  0  4           0  0  0
   -1.7490   -0.8204   -3.8009 C   0  0  0  0  0  4           0  0  0
   -0.2487   -0.9559   -3.5590 C   0  0  0  0  0  4           0  0  0
   -2.3917    0.2379   -2.9172 C   0  0  0  0  0  4           0  0  0
    2.3008   -1.4384    1.6766 C   0  0  0  0  0  4           0  0  0
  1  6  1  0     0  0
  2 17  2  0     0  0
  3 17  1  0     0  0
  3 18  1  0     0  0
  4  7  1  0     0  0
  4  8  2  0     0  0
  5 17  1  0     0  0
  5 19  1  0     0  0
  5 20  1  0     0  0
  6 12  1  0     0  0
  6 13  2  0     0  0
  7  9  2  0     0  0
  7 21  1  0     0  0
  8 14  1  0     0  0
  9 15  1  0     0  0
  9 22  1  0     0  0
 10 11  1  0     0  0
 10 16  2  0     0  0
 10 21  1  0     0  0
 11 12  2  0     0  0
 11 23  1  0     0  0
 13 16  1  0     0  0
 14 15  2  0     0  0
 18 27  1  0     0  0
 19 25  1  0     0  0
 20 26  1  0     0  0
 21 24  2  0     0  0
 22 23  1  0     0  0
 24 25  1  0     0  0
 24 26  1  0     0  0
M  END
> <standard_type>
pIC50

> <# Confs.>
25

> <canonical_smiles>
ClC1=CC=C2C(CCC3=C(/C2=C4CCN(CC\4)C(OCC)=O)N=CC=C3)=C1

> <standard_relation>
=

> <Publication_ID>
nan

> <predicted_activity_value>
nan

> <actual_activity_value>
0.7619538968712045

> <Compound>
Loratadine

> <standard_units>
uM

> hash
10847742968109876124

$$$$
28
XXILIB    08252103503D 0   0.00000     0.00000

 27 30  0     1  0            999 V2000
   -7.5147    2.8717   -6.2757 Cl  0  0  0  0  0  1           0  0  0
   -0.6843    0.0000    1.0213 O   0  0  0  0  0  2           0  0  0
    1.3623    0.0000    0.0000 O   0  0  0  0  0  2           0  0  0
   -0.5916   -0.2849   -6.9189 N   0  0  0  0  0  3           0  0  0
   -0.5187   -0.0002   -1.2843 N   0  0  1  0  0  3           0  0  0
   -6.0302    2.0523   -5.9765 C   0  0  0  0  0  4           0  0  0
   -1.6964   -0.7698   -6.3032 C   0  0  0  0  0  4           0  0  0
   -0.0698   -1.0444   -7.9071 C   0  0  0  0  0  4           0  0  0
   -2.3202   -1.9697   -6.6510 C   0  0  0  0  0  4           0  0  0
   -3.6204    0.6985   -5.4833 C   0  0  0  0  0  4           0  0  0
   -4.7412   -0.0260   -5.9486 C   0  0  0  0  0  4           0  0  0
   -5.9442    0.6752   -6.1804 C   0  0  0  0  0  4           0  0  0
   -4.9200    2.7677   -5.5497 C   0  0  0  0  0  4           0  0  0
   -0.6018   -2.2552   -8.3185 C   0  0  0  0  0  4           0  0  0
   -1.7470   -2.7184   -7.6788 C   0  0  0  0  0  4           0  0  0
   -3.7224    2.0948   -5.3143 C   0  0  0  0  0  4           0  0  0
    0.0000    0.0000    0.0000 C   0  0  0  0  0  4           0  0  0
    2.0664    0.0000    1.2579 C   0  0  0  0  0  4           0  0  0
    0.3215   -0.0002   -2.4840 C   0  0  0  0  0  4           0  0  0
   -1.9655    0.0194   -1.4865 C   0  0  0  0  0  4           0  0  0
   -2.3020    0.0542   -5.2328 C   0  0  0  0  0  4           0  0  0
   -3.5772   -2.4056   -5.9497 C   0  0  0  0  0  4           0  0  0
   -4.7739   -1.5088   -6.2875 C   0  0  0  0  0  4           0  0  0
   -1.7158    0.0806   -4.0034 C   0  0  0  0  0  4           0  0  0
   -0.3917   -0.6094   -3.6922 C   0  0  0  0  0  4           0  0  0
   -2.3497    0.7345   -2.7816 C   0  0  0  0  0  4           0  0  0
    3.5560    0.0000    0.9741 C   0  0  0  0  0  4           0  0  0
  1  6  1  0     0  0
  2 17  2  0     0  0
  3 17  1  0     0  0
  3 18  1  0     0  0
  4  7  1  0     0  0
  4  8  2  0     0  0
  5 17  1  0     0  0
  5 19  1  0     0  0
  5 20  1  0     0  0
  6 12  1  0     0  0
  6 13  2  0     0  0
  7  9  2  0     0  0
  7 21  1  0     0  0
  8 14  1  0     0  0
  9 15  1  0     0  0
  9 22  1  0     0  0
 10 11  1  0     0  0
 10 16  2  0     0  0
 10 21  1  0     0  0
 11 12  2  0     0  0
 11 23  1  0     0  0
 13 16  1  0     0  0
 14 15  2  0     0  0
 18 27  1  0     0  0
 19 25  1  0     0  0
 20 26  1  0     0  0
 21 24  2  0     0  0
 22 23  1  0     0  0
 24 25  1  0     0  0
 24 26  1  0     0  0
M  END
> <standard_type>
pIC50

> <# Confs.>
25

> <canonical_smiles>
ClC1=CC=C2C(CCC3=C(/C2=C4CCN(CC\4)C(OCC)=O)N=CC=C3)=C1

> <standard_relation>
=

> <Publication_ID>
nan

> <predicted_activity_value>
nan

> <actual_activity_value>
0.7619538968712045

> <Compound>
Loratadine

> <standard_units>
uM

> hash
10847742968109876124

$$$$
28
XXILIB    08252103503D 0   0.00000     0.00000

 27 30  0     1  0            999 V2000
   -7.5561    2.4949   -6.0096 Cl  0  0  0  0  0  1           0  0  0
   -0.6843   -0.0000    1.0213 O   0  0  0  0  0  2           0  0  0
    1.3623    0.0000   -0.0000 O   0  0  0  0  0  2           0  0  0
   -0.8644   -1.5139   -5.9601 N   0  0  0  0  0  3           0  0  0
   -0.5187   -0.0002   -1.2843 N   0  0  1  0  0  3           0  0  0
   -5.9632    1.8933   -5.7480 C   0  0  0  0  0  4           0  0  0
   -1.3353   -0.2710   -6.2559 C   0  0  0  0  0  4           0  0  0
   -0.2682   -2.2152   -6.9466 C   0  0  0  0  0  4           0  0  0
   -1.2669    0.2841   -7.5416 C   0  0  0  0  0  4           0  0  0
   -3.3843    0.9265   -5.3144 C   0  0  0  0  0  4           0  0  0
   -3.5876    1.9963   -6.2049 C   0  0  0  0  0  4           0  0  0
   -4.8849    2.4812   -6.4120 C   0  0  0  0  0  4           0  0  0
   -5.7655    0.8179   -4.8828 C   0  0  0  0  0  4           0  0  0
   -0.1257   -1.7520   -8.2368 C   0  0  0  0  0  4           0  0  0
   -0.6385   -0.4943   -8.5293 C   0  0  0  0  0  4           0  0  0
   -4.4767    0.3297   -4.6704 C   0  0  0  0  0  4           0  0  0
    0.0000    0.0000    0.0000 C   0  0  0  0  0  4           0  0  0
    2.0664    0.0000    1.2579 C   0  0  0  0  0  4           0  0  0
    0.1600   -0.6123   -2.4354 C   0  0  0  0  0  4           0  0  0
   -1.8744    0.5002   -1.5276 C   0  0  0  0  0  4           0  0  0
   -2.0048    0.4193   -5.1236 C   0  0  0  0  0  4           0  0  0
   -1.8424    1.6128   -7.9896 C   0  0  0  0  0  4           0  0  0
   -2.4125    2.5836   -6.9482 C   0  0  0  0  0  4           0  0  0
   -1.3439    0.6732   -3.9626 C   0  0  0  0  0  4           0  0  0
    0.1001    0.2950   -3.6646 C   0  0  0  0  0  4           0  0  0
   -1.9316    1.4019   -2.7611 C   0  0  0  0  0  4           0  0  0
    2.3008    1.4384    1.6766 C   0  0  0  0  0  4           0  0  0
  1  6  1  0     0  0
  2 17  2  0     0  0
  3 17  1  0     0  0
  3 18  1  0     0  0
  4  7  1  0     0  0
  4  8  2  0     0  0
  5 17  1  0     0  0
  5 19  1  0     0  0
  5 20  1  0     0  0
  6 12  1  0     0  0
  6 13  2  0     0  0
  7  9  2  0     0  0
  7 21  1  0     0  0
  8 14  1  0     0  0
  9 15  1  0     0  0
  9 22  1  0     0  0
 10 11  1  0     0  0
 10 16  2  0     0  0
 10 21  1  0     0  0
 11 12  2  0     0  0
 11 23  1  0     0  0
 13 16  1  0     0  0
 14 15  2  0     0  0
 18 27  1  0     0  0
 19 25  1  0     0  0
 20 26  1  0     0  0
 21 24  2  0     0  0
 22 23  1  0     0  0
 24 25  1  0     0  0
 24 26  1  0     0  0
M  END
> <standard_type>
pIC50

> <# Confs.>
25

> <canonical_smiles>
ClC1=CC=C2C(CCC3=C(/C2=C4CCN(CC\4)C(OCC)=O)N=CC=C3)=C1

> <standard_relation>
=

> <Publication_ID>
nan

> <predicted_activity_value>
nan

> <actual_activity_value>
0.7619538968712045

> <Compound>
Loratadine

> <standard_units>
uM

> hash
10847742968109876124

$$$$
28
XXILIB    08252103503D 0   0.00000     0.00000

 27 30  0     1  0            999 V2000
    0.8307   -0.5798  -10.2413 Cl  0  0  0  0  0  1           0  0  0
   -0.6843    0.0000    1.0213 O   0  0  0  0  0  2           0  0  0
    1.3623    0.0000   -0.0000 O   0  0  0  0  0  2           0  0  0
   -4.3420    1.6608   -5.0750 N   0  0  0  0  0  3           0  0  0
   -0.5187   -0.0002   -1.2843 N   0  0  1  0  0  3           0  0  0
    0.0291   -0.1038   -8.7937 C   0  0  0  0  0  4           0  0  0
   -3.0610    2.0676   -5.2412 C   0  0  0  0  0  4           0  0  0
   -5.2924    2.6190   -5.1399 C   0  0  0  0  0  4           0  0  0
   -2.6892    3.3891   -5.4971 C   0  0  0  0  0  4           0  0  0
   -1.2652    0.6890   -6.4309 C   0  0  0  0  0  4           0  0  0
   -0.6684    1.6674   -7.2572 C   0  0  0  0  0  4           0  0  0
   -0.0173    1.2436   -8.4361 C   0  0  0  0  0  4           0  0  0
   -0.5832   -1.0608   -7.9965 C   0  0  0  0  0  4           0  0  0
   -5.0291    3.9587   -5.3719 C   0  0  0  0  0  4           0  0  0
   -3.7050    4.3432   -5.5556 C   0  0  0  0  0  4           0  0  0
   -1.2347   -0.6636   -6.8303 C   0  0  0  0  0  4           0  0  0
    0.0000    0.0000    0.0000 C   0  0  0  0  0  4           0  0  0
    2.0664    0.0000    1.2579 C   0  0  0  0  0  4           0  0  0
    0.3321   -0.0002   -2.4755 C   0  0  0  0  0  4           0  0  0
   -1.9628    0.0112   -1.4983 C   0  0  0  0  0  4           0  0  0
   -1.9998    1.0359   -5.1839 C   0  0  0  0  0  4           0  0  0
   -1.2452    3.7457   -5.7198 C   0  0  0  0  0  4           0  0  0
   -0.7000    3.1717   -7.0328 C   0  0  0  0  0  4           0  0  0
   -1.6311    0.5397   -3.9698 C   0  0  0  0  0  4           0  0  0
   -0.4292   -0.3690   -3.7496 C   0  0  0  0  0  4           0  0  0
   -2.3503    0.9076   -2.6749 C   0  0  0  0  0  4           0  0  0
    2.3008    1.4384    1.6766 C   0  0  0  0  0  4           0  0  0
  1  6  1  0     0  0
  2 17  2  0     0  0
  3 17  1  0     0  0
  3 18  1  0     0  0
  4  7  1  0     0  0
  4  8  2  0     0  0
  5 17  1  0     0  0
  5 19  1  0     0  0
  5 20  1  0     0  0
  6 12  1  0     0  0
  6 13  2  0     0  0
  7  9  2  0     0  0
  7 21  1  0     0  0
  8 14  1  0     0  0
  9 15  1  0     0  0
  9 22  1  0     0  0
 10 11  1  0     0  0
 10 16  2  0     0  0
 10 21  1  0     0  0
 11 12  2  0     0  0
 11 23  1  0     0  0
 13 16  1  0     0  0
 14 15  2  0     0  0
 18 27  1  0     0  0
 19 25  1  0     0  0
 20 26  1  0     0  0
 21 24  2  0     0  0
 22 23  1  0     0  0
 24 25  1  0     0  0
 24 26  1  0     0  0
M  END
> <standard_type>
pIC50

> <# Confs.>
25

> <canonical_smiles>
ClC1=CC=C2C(CCC3=C(/C2=C4CCN(CC\4)C(OCC)=O)N=CC=C3)=C1

> <standard_relation>
=

> <Publication_ID>
nan

> <predicted_activity_value>
nan

> <actual_activity_value>
0.7619538968712045

> <Compound>
Loratadine

> <standard_units>
uM

> hash
10847742968109876124

$$$$
28
XXILIB    08252103503D 0   0.00000     0.00000

 27 30  0     1  0            999 V2000
    0.6543    1.4093  -10.1619 Cl  0  0  0  0  0  1           0  0  0
   -0.6843    0.0000    1.0213 O   0  0  0  0  0  2           0  0  0
    1.3623    0.0000   -0.0000 O   0  0  0  0  0  2           0  0  0
   -4.4743   -1.2050   -5.1226 N   0  0  0  0  0  3           0  0  0
   -0.5187   -0.0002   -1.2843 N   0  0  1  0  0  3           0  0  0
   -0.1331    0.7983   -8.7580 C   0  0  0  0  0  4           0  0  0
   -3.2208   -1.6473   -5.3822 C   0  0  0  0  0  4           0  0  0
   -5.4720   -2.1059   -5.2590 C   0  0  0  0  0  4           0  0  0
   -2.9224   -2.9446   -5.8039 C   0  0  0  0  0  4           0  0  0
   -1.4014   -0.2154   -6.4675 C   0  0  0  0  0  4           0  0  0
   -0.8762   -1.1126   -7.4243 C   0  0  0  0  0  4           0  0  0
   -0.2364   -0.5790   -8.5638 C   0  0  0  0  0  4           0  0  0
   -0.6764    1.6783   -7.8325 C   0  0  0  0  0  4           0  0  0
   -5.2819   -3.4205   -5.6511 C   0  0  0  0  0  4           0  0  0
   -3.9852   -3.8393   -5.9305 C   0  0  0  0  0  4           0  0  0
   -1.3153    1.1727   -6.7019 C   0  0  0  0  0  4           0  0  0
    0.0000    0.0000    0.0000 C   0  0  0  0  0  4           0  0  0
    2.0664    0.0000    1.2579 C   0  0  0  0  0  4           0  0  0
    0.3283   -0.0002   -2.4788 C   0  0  0  0  0  4           0  0  0
   -1.9640   -0.0223   -1.4930 C   0  0  0  0  0  4           0  0  0
   -2.1094   -0.6789   -5.2437 C   0  0  0  0  0  4           0  0  0
   -1.5060   -3.3348   -6.1266 C   0  0  0  0  0  4           0  0  0
   -0.9785   -2.6298   -7.3821 C   0  0  0  0  0  4           0  0  0
   -1.6681   -0.3552   -3.9962 C   0  0  0  0  0  4           0  0  0
   -0.4171    0.4717   -3.7279 C   0  0  0  0  0  4           0  0  0
   -2.3458   -0.8479   -2.7215 C   0  0  0  0  0  4           0  0  0
    2.3008    1.4384    1.6766 C   0  0  0  0  0  4           0  0  0
  1  6  1  0     0  0
  2 17  2  0     0  0
  3 17  1  0     0  0
  3 18  1  0     0  0
  4  7  1  0     0  0
  4  8  2  0     0  0
  5 17  1  0     0  0
  5 19  1  0     0  0
  5 20  1  0     0  0
  6 12  1  0     0  0
  6 13  2  0     0  0
  7  9  2  0     0  0
  7 21  1  0     0  0
  8 14  1  0     0  0
  9 15  1  0     0  0
  9 22  1  0     0  0
 10 11  1  0     0  0
 10 16  2  0     0  0
 10 21  1  0     0  0
 11 12  2  0     0  0
 11 23  1  0     0  0
 13 16  1  0     0  0
 14 15  2  0     0  0
 18 27  1  0     0  0
 19 25  1  0     0  0
 20 26  1  0     0  0
 21 24  2  0     0  0
 22 23  1  0     0  0
 24 25  1  0     0  0
 24 26  1  0     0  0
M  END
> <standard_type>
pIC50

> <# Confs.>
25

> <canonical_smiles>
ClC1=CC=C2C(CCC3=C(/C2=C4CCN(CC\4)C(OCC)=O)N=CC=C3)=C1

> <standard_relation>
=

> <Publication_ID>
nan

> <predicted_activity_value>
nan

> <actual_activity_value>
0.7619538968712045

> <Compound>
Loratadine

> <standard_units>
uM

> hash
10847742968109876124

$$$$
28
XXILIB    08252103503D 0   0.00000     0.00000

 27 30  0     1  0            999 V2000
   -7.3792   -3.4351   -6.0770 Cl  0  0  0  0  0  1           0  0  0
   -0.6843   -0.0000    1.0213 O   0  0  0  0  0  2           0  0  0
    1.3623    0.0000   -0.0000 O   0  0  0  0  0  2           0  0  0
   -0.4831   -0.2675   -6.9061 N   0  0  0  0  0  3           0  0  0
   -0.5187   -0.0002   -1.2843 N   0  0  1  0  0  3           0  0  0
   -5.9146   -2.5614   -5.8396 C   0  0  0  0  0  4           0  0  0
   -1.6114    0.2716   -6.3852 C   0  0  0  0  0  4           0  0  0
    0.0581    0.3741   -7.9648 C   0  0  0  0  0  4           0  0  0
   -2.2398    1.4102   -6.8936 C   0  0  0  0  0  4           0  0  0
   -3.5375   -1.1192   -5.4478 C   0  0  0  0  0  4           0  0  0
   -4.6550   -0.4728   -6.0230 C   0  0  0  0  0  4           0  0  0
   -5.8422   -1.2161   -6.2005 C   0  0  0  0  0  4           0  0  0
   -4.8058   -3.2034   -5.3055 C   0  0  0  0  0  4           0  0  0
   -0.4761    1.5179   -8.5347 C   0  0  0  0  0  4           0  0  0
   -1.6452    2.0377   -7.9883 C   0  0  0  0  0  4           0  0  0
   -3.6242   -2.4878   -5.1201 C   0  0  0  0  0  4           0  0  0
    0.0000    0.0000    0.0000 C   0  0  0  0  0  4           0  0  0
    2.0664    0.0000    1.2579 C   0  0  0  0  0  4           0  0  0
   -1.9648   -0.0004   -1.4924 C   0  0  0  0  0  4           0  0  0
    0.3272   -0.0282   -2.4795 C   0  0  0  0  0  4           0  0  0
   -2.2371   -0.4251   -5.2390 C   0  0  0  0  0  4           0  0  0
   -3.5202    1.9088   -6.2824 C   0  0  0  0  0  4           0  0  0
   -4.6986    0.9600   -6.5334 C   0  0  0  0  0  4           0  0  0
   -1.6934   -0.2860   -3.9977 C   0  0  0  0  0  4           0  0  0
   -2.3554   -0.8102   -2.7286 C   0  0  0  0  0  4           0  0  0
   -0.4002    0.4754   -3.7271 C   0  0  0  0  0  4           0  0  0
    2.3008    1.4384    1.6766 C   0  0  0  0  0  4           0  0  0
  1  6  1  0     0  0
  2 17  2  0     0  0
  3 17  1  0     0  0
  3 18  1  0     0  0
  4  7  1  0     0  0
  4  8  2  0     0  0
  5 17  1  0     0  0
  5 19  1  0     0  0
  5 20  1  0     0  0
  6 12  1  0     0  0
  6 13  2  0     0  0
  7  9  2  0     0  0
  7 21  1  0     0  0
  8 14  1  0     0  0
  9 15  1  0     0  0
  9 22  1  0     0  0
 10 11  1  0     0  0
 10 16  2  0     0  0
 10 21  1  0     0  0
 11 12  2  0     0  0
 11 23  1  0     0  0
 13 16  1  0     0  0
 14 15  2  0     0  0
 18 27  1  0     0  0
 19 25  1  0     0  0
 20 26  1  0     0  0
 21 24  2  0     0  0
 22 23  1  0     0  0
 24 25  1  0     0  0
 24 26  1  0     0  0
M  END
> <standard_type>
pIC50

> <# Confs.>
25

> <canonical_smiles>
ClC1=CC=C2C(CCC3=C(/C2=C4CCN(CC\4)C(OCC)=O)N=CC=C3)=C1

> <standard_relation>
=

> <Publication_ID>
nan

> <predicted_activity_value>
nan

> <actual_activity_value>
0.7619538968712045

> <Compound>
Loratadine

> <standard_units>
uM

> hash
10847742968109876124

$$$$
40
XXILIB    08252103503D 0   0.00000     0.00000

 17 18  0     1  0            999 V2000
   -3.2337   -2.3337    1.1479 O   0  0  0  0  0  2           0  0  0
    0.0014    0.6810    2.3346 O   0  0  0  0  0  2           0  0  0
    0.0655   -1.4956   -1.9156 O   0  0  0  0  0  2           0  0  0
   -1.6394   -0.7731    1.6884 N   0  0  0  0  0  3           0  0  0
   -1.5984   -1.8532   -0.3892 N   0  0  0  0  0  3           0  0  0
    1.5126    0.0000   -0.0000 C   0  0  0  0  0  4           0  0  0
    2.2665    1.0259   -0.5923 C   0  0  0  0  0  4           0  0  0
    2.2099   -1.0590    0.6125 C   0  0  0  0  0  4           0  0  0
    3.6640    0.9934   -0.5738 C   0  0  0  0  0  4           0  0  0
    3.6060   -1.0904    0.6305 C   0  0  0  0  0  4           0  0  0
    4.3332   -0.0633    0.0370 C   0  0  0  0  0  4           0  0  0
   -2.2323   -1.6883    0.8325 C   0  0  0  0  0  4           0  0  0
   -0.5170   -0.0000    1.4474 C   0  0  0  0  0  4           0  0  0
   -0.4778   -1.1863   -0.8529 C   0  0  0  0  0  4           0  0  0
    0.0000    0.0000    0.0000 C   0  0  2  0  0  4           0  0  0
   -0.6254    1.2299   -0.6739 C   0  0  0  0  0  4           0  0  0
   -2.1520    1.2504   -0.6852 C   0  0  0  0  0  4           0  0  0
  1 12  2  0     0  0
  2 13  2  0     0  0
  3 14  2  0     0  0
  4 12  1  0     0  0
  4 13  1  0     0  0
  5 12  1  0     0  0
  5 14  1  0     0  0
  6  7  2  0     0  0
  6  8  1  0     0  0
  6 15  1  0     0  0
  7  9  1  0     0  0
  8 10  2  0     0  0
  9 11  2  0     0  0
 10 11  1  0     0  0
 13 15  1  0     0  0
 14 15  1  0     0  0
 15 16  1  0     0  0
 16 17  1  0     0  0
M  END
> <standard_type>
pIC50

> <# Confs.>
4

> <canonical_smiles>
O=C(NC1=O)NC(C1(C2=CC=CC=C2)CC)=O

> <standard_relation>
=

> <Publication_ID>
nan

> <predicted_activity_value>
nan

> <actual_activity_value>
-0.47712125471966244

> <Compound>
Phenobarbital

> <standard_units>
uM

> hash
3985351829462925984

$$$$
40
XXILIB    08252103503D 0   0.00000     0.00000

 17 18  0     1  0            999 V2000
   -3.2337   -2.3337    1.1479 O   0  0  0  0  0  2           0  0  0
    0.0014    0.6810    2.3346 O   0  0  0  0  0  2           0  0  0
    0.0655   -1.4956   -1.9156 O   0  0  0  0  0  2           0  0  0
   -1.6394   -0.7731    1.6884 N   0  0  0  0  0  3           0  0  0
   -1.5984   -1.8532   -0.3892 N   0  0  0  0  0  3           0  0  0
    1.5126    0.0000   -0.0000 C   0  0  0  0  0  4           0  0  0
    2.2665    0.5923   -1.0259 C   0  0  0  0  0  4           0  0  0
    2.2099   -0.6109    1.0599 C   0  0  0  0  0  4           0  0  0
    3.6640    0.5734   -0.9936 C   0  0  0  0  0  4           0  0  0
    3.6060   -0.6291    1.0912 C   0  0  0  0  0  4           0  0  0
    4.3332   -0.0363    0.0637 C   0  0  0  0  0  4           0  0  0
   -2.2323   -1.6883    0.8325 C   0  0  0  0  0  4           0  0  0
   -0.5170   -0.0000    1.4474 C   0  0  0  0  0  4           0  0  0
   -0.4778   -1.1863   -0.8529 C   0  0  0  0  0  4           0  0  0
    0.0000    0.0000    0.0000 C   0  0  2  0  0  4           0  0  0
   -0.6254    1.2299   -0.6739 C   0  0  0  0  0  4           0  0  0
   -0.2551    2.5686   -0.0400 C   0  0  0  0  0  4           0  0  0
  1 12  2  0     0  0
  2 13  2  0     0  0
  3 14  2  0     0  0
  4 12  1  0     0  0
  4 13  1  0     0  0
  5 12  1  0     0  0
  5 14  1  0     0  0
  6  7  2  0     0  0
  6  8  1  0     0  0
  6 15  1  0     0  0
  7  9  1  0     0  0
  8 10  2  0     0  0
  9 11  2  0     0  0
 10 11  1  0     0  0
 13 15  1  0     0  0
 14 15  1  0     0  0
 15 16  1  0     0  0
 16 17  1  0     0  0
M  END
> <standard_type>
pIC50

> <# Confs.>
4

> <canonical_smiles>
O=C(NC1=O)NC(C1(C2=CC=CC=C2)CC)=O

> <standard_relation>
=

> <Publication_ID>
nan

> <predicted_activity_value>
nan

> <actual_activity_value>
-0.47712125471966244

> <Compound>
Phenobarbital

> <standard_units>
uM

> hash
3985351829462925984

$$$$
40
XXILIB    08252103503D 0   0.00000     0.00000

 17 18  0     1  0            999 V2000
   -3.2337   -2.3337    1.1479 O   0  0  0  0  0  2           0  0  0
    0.0014    0.6810    2.3346 O   0  0  0  0  0  2           0  0  0
    0.0655   -1.4956   -1.9156 O   0  0  0  0  0  2           0  0  0
   -1.6394   -0.7731    1.6884 N   0  0  0  0  0  3           0  0  0
   -1.5984   -1.8532   -0.3892 N   0  0  0  0  0  3           0  0  0
    1.5126    0.0000    0.0000 C   0  0  0  0  0  4           0  0  0
    2.2665    1.1846    0.0000 C   0  0  0  0  0  4           0  0  0
    2.2099   -1.2234    0.0009 C   0  0  0  0  0  4           0  0  0
    3.6640    1.1472   -0.0002 C   0  0  0  0  0  4           0  0  0
    3.6060   -1.2596    0.0008 C   0  0  0  0  0  4           0  0  0
    4.3332   -0.0733    0.0004 C   0  0  0  0  0  4           0  0  0
   -2.2323   -1.6883    0.8325 C   0  0  0  0  0  4           0  0  0
   -0.5170   -0.0000    1.4474 C   0  0  0  0  0  4           0  0  0
   -0.4778   -1.1863   -0.8529 C   0  0  0  0  0  4           0  0  0
    0.0000    0.0000    0.0000 C   0  0  2  0  0  4           0  0  0
   -0.6254    1.2299   -0.6739 C   0  0  0  0  0  4           0  0  0
   -0.2551    1.4161   -2.1433 C   0  0  0  0  0  4           0  0  0
  1 12  2  0     0  0
  2 13  2  0     0  0
  3 14  2  0     0  0
  4 12  1  0     0  0
  4 13  1  0     0  0
  5 12  1  0     0  0
  5 14  1  0     0  0
  6  7  2  0     0  0
  6  8  1  0     0  0
  6 15  1  0     0  0
  7  9  1  0     0  0
  8 10  2  0     0  0
  9 11  2  0     0  0
 10 11  1  0     0  0
 13 15  1  0     0  0
 14 15  1  0     0  0
 15 16  1  0     0  0
 16 17  1  0     0  0
M  END
> <standard_type>
pIC50

> <# Confs.>
4

> <canonical_smiles>
O=C(NC1=O)NC(C1(C2=CC=CC=C2)CC)=O

> <standard_relation>
=

> <Publication_ID>
nan

> <predicted_activity_value>
nan

> <actual_activity_value>
-0.47712125471966244

> <Compound>
Phenobarbital

> <standard_units>
uM

> hash
3985351829462925984

$$$$
40
XXILIB    08252103503D 0   0.00000     0.00000

 17 18  0     1  0            999 V2000
   -3.2337   -2.3337    1.1479 O   0  0  0  0  0  2           0  0  0
    0.0014    0.6810    2.3346 O   0  0  0  0  0  2           0  0  0
    0.0655   -1.4956   -1.9156 O   0  0  0  0  0  2           0  0  0
   -1.6394   -0.7731    1.6884 N   0  0  0  0  0  3           0  0  0
   -1.5984   -1.8532   -0.3892 N   0  0  0  0  0  3           0  0  0
    1.5126   -0.0000   -0.0000 C   0  0  0  0  0  4           0  0  0
    2.2665   -1.0259   -0.5923 C   0  0  0  0  0  4           0  0  0
    2.2099    1.0599    0.6109 C   0  0  0  0  0  4           0  0  0
    3.6640   -0.9936   -0.5734 C   0  0  0  0  0  4           0  0  0
    3.6060    1.0912    0.6291 C   0  0  0  0  0  4           0  0  0
    4.3332    0.0637    0.0363 C   0  0  0  0  0  4           0  0  0
   -2.2323   -1.6883    0.8325 C   0  0  0  0  0  4           0  0  0
   -0.5170   -0.0000    1.4474 C   0  0  0  0  0  4           0  0  0
   -0.4778   -1.1863   -0.8529 C   0  0  0  0  0  4           0  0  0
    0.0000    0.0000    0.0000 C   0  0  2  0  0  4           0  0  0
   -0.6254    1.2299   -0.6739 C   0  0  0  0  0  4           0  0  0
   -2.1520    1.2504   -0.6852 C   0  0  0  0  0  4           0  0  0
  1 12  2  0     0  0
  2 13  2  0     0  0
  3 14  2  0     0  0
  4 12  1  0     0  0
  4 13  1  0     0  0
  5 12  1  0     0  0
  5 14  1  0     0  0
  6  7  2  0     0  0
  6  8  1  0     0  0
  6 15  1  0     0  0
  7  9  1  0     0  0
  8 10  2  0     0  0
  9 11  2  0     0  0
 10 11  1  0     0  0
 13 15  1  0     0  0
 14 15  1  0     0  0
 15 16  1  0     0  0
 16 17  1  0     0  0
M  END
> <standard_type>
pIC50

> <# Confs.>
4

> <canonical_smiles>
O=C(NC1=O)NC(C1(C2=CC=CC=C2)CC)=O

> <standard_relation>
=

> <Publication_ID>
nan

> <predicted_activity_value>
nan

> <actual_activity_value>
-0.47712125471966244

> <Compound>
Phenobarbital

> <standard_units>
uM

> hash
3985351829462925984

$$$$
52
XXILIB    08252103503D 0   0.00000     0.00000

 25 28  0     1  0            999 V2000
   -2.9995    0.8824    0.0080 S   0  0  0  0  0  2           0  0  0
    0.2146   -0.8760    5.2027 S   0  0  0  0  0  2           0  0  0
    0.0000   -0.0000    0.0000 N   0  0  1  0  0  3           0  0  0
    4.1469   -0.8658    1.1951 N   0  0  1  0  0  3           0  0  0
   -2.0069    0.3575    1.3864 C   0  0  0  0  0  4           0  0  0
   -2.0062    0.3921   -1.3828 C   0  0  0  0  0  4           0  0  0
   -0.6164   -0.3862    3.7115 C   0  0  0  0  0  4           0  0  0
   -0.6518    0.0000    1.2652 C   0  0  0  0  0  4           0  0  0
   -0.6494    0.0322   -1.2654 C   0  0  0  0  0  4           0  0  0
    0.0135   -0.3850    2.4559 C   0  0  0  0  0  4           0  0  0
   -2.6445    0.3452    2.6390 C   0  0  0  0  0  4           0  0  0
   -2.6421    0.4182   -2.6390 C   0  0  0  0  0  4           0  0  0
   -1.9575   -0.0252    3.7909 C   0  0  0  0  0  4           0  0  0
    0.0165   -0.3174   -2.4627 C   0  0  0  0  0  4           0  0  0
   -1.9514    0.0788   -3.7963 C   0  0  0  0  0  4           0  0  0
   -0.6201   -0.2922   -3.7075 C   0  0  0  0  0  4           0  0  0
    1.5815    0.3139    5.2856 C   0  0  0  0  0  4           0  0  0
    3.5721   -1.5180    0.0000 C   0  0  2  0  0  4           0  0  0
    1.4570    0.0000   -0.0000 C   0  0  0  0  0  4           0  0  0
    3.9738   -1.6615    2.4188 C   0  0  0  0  0  4           0  0  0
    5.5445   -0.4840    0.9921 C   0  0  0  0  0  4           0  0  0
    2.0408   -1.4132   -0.0000 C   0  0  0  0  0  4           0  0  0
    4.0280   -2.9817   -0.1658 C   0  0  0  0  0  4           0  0  0
    4.4609   -3.1063    2.3020 C   0  0  0  0  0  4           0  0  0
    3.8361   -3.8076    1.1028 C   0  0  0  0  0  4           0  0  0
  1  5  1  0     0  0
  1  6  1  0     0  0
  2  7  1  0     0  0
  2 17  1  0     0  0
  3  8  1  0     0  0
  3  9  1  0     0  0
  3 19  1  0     0  0
  4 18  1  0     0  0
  4 20  1  0     0  0
  4 21  1  0     0  0
  5  8  2  0     0  0
  5 11  1  0     0  0
  6  9  2  0     0  0
  6 12  1  0     0  0
  7 10  2  0     0  0
  7 13  1  0     0  0
  8 10  1  0     0  0
  9 14  1  0     0  0
 11 13  2  0     0  0
 12 15  2  0     0  0
 14 16  2  0     0  0
 15 16  1  0     0  0
 18 22  1  0     0  0
 18 23  1  0     0  0
 19 22  1  0     0  0
 20 24  1  0     0  0
 23 25  1  0     0  0
 24 25  1  0     0  0
M  END
> <standard_type>
pIC50

> <# Confs.>
25

> <canonical_smiles>
CSC1=CC2=C(C=C1)SC3=C(C=CC=C3)N2CCC4N(C)CCCC4

> <standard_relation>
=

> <Publication_ID>
nan

> <predicted_activity_value>
nan

> <actual_activity_value>
1.4436974992327127

> <Compound>
Thioridazine

> <standard_units>
uM

> hash
11666782688447714333

$$$$
52
XXILIB    08252103503D 0   0.00000     0.00000

 25 28  0     1  0            999 V2000
   -2.9995    0.8824    0.0080 S   0  0  0  0  0  2           0  0  0
    0.2146   -0.8760    5.2027 S   0  0  0  0  0  2           0  0  0
    0.0000   -0.0000    0.0000 N   0  0  1  0  0  3           0  0  0
    4.0895   -2.9096    0.0000 N   0  0  1  0  0  3           0  0  0
   -2.0069    0.3575    1.3864 C   0  0  0  0  0  4           0  0  0
   -2.0062    0.3921   -1.3828 C   0  0  0  0  0  4           0  0  0
   -0.6164   -0.3862    3.7115 C   0  0  0  0  0  4           0  0  0
   -0.6518    0.0000    1.2652 C   0  0  0  0  0  4           0  0  0
   -0.6494    0.0322   -1.2654 C   0  0  0  0  0  4           0  0  0
    0.0135   -0.3850    2.4559 C   0  0  0  0  0  4           0  0  0
   -2.6445    0.3452    2.6390 C   0  0  0  0  0  4           0  0  0
   -2.6421    0.4182   -2.6390 C   0  0  0  0  0  4           0  0  0
   -1.9575   -0.0252    3.7909 C   0  0  0  0  0  4           0  0  0
    0.0165   -0.3174   -2.4627 C   0  0  0  0  0  4           0  0  0
   -1.9514    0.0788   -3.7963 C   0  0  0  0  0  4           0  0  0
   -0.6201   -0.2922   -3.7075 C   0  0  0  0  0  4           0  0  0
    0.6836   -2.5889    4.8324 C   0  0  0  0  0  4           0  0  0
    3.5721   -1.5180    0.0000 C   0  0  2  0  0  4           0  0  0
    1.4570   -0.0000   -0.0000 C   0  0  0  0  0  4           0  0  0
    5.5633   -2.9307    0.0273 C   0  0  0  0  0  4           0  0  0
    3.6228   -3.7078   -1.1345 C   0  0  0  0  0  4           0  0  0
    2.0408   -1.4132    0.0000 C   0  0  0  0  0  4           0  0  0
    4.0903   -0.7767    1.2540 C   0  0  0  0  0  4           0  0  0
    6.1179   -2.2276    1.2632 C   0  0  0  0  0  4           0  0  0
    5.6101   -0.7982    1.3469 C   0  0  0  0  0  4           0  0  0
  1  5  1  0     0  0
  1  6  1  0     0  0
  2  7  1  0     0  0
  2 17  1  0     0  0
  3  8  1  0     0  0
  3  9  1  0     0  0
  3 19  1  0     0  0
  4 18  1  0     0  0
  4 20  1  0     0  0
  4 21  1  0     0  0
  5  8  2  0     0  0
  5 11  1  0     0  0
  6  9  2  0     0  0
  6 12  1  0     0  0
  7 10  2  0     0  0
  7 13  1  0     0  0
  8 10  1  0     0  0
  9 14  1  0     0  0
 11 13  2  0     0  0
 12 15  2  0     0  0
 14 16  2  0     0  0
 15 16  1  0     0  0
 18 22  1  0     0  0
 18 23  1  0     0  0
 19 22  1  0     0  0
 20 24  1  0     0  0
 23 25  1  0     0  0
 24 25  1  0     0  0
M  END
> <standard_type>
pIC50

> <# Confs.>
25

> <canonical_smiles>
CSC1=CC2=C(C=C1)SC3=C(C=CC=C3)N2CCC4N(C)CCCC4

> <standard_relation>
=

> <Publication_ID>
nan

> <predicted_activity_value>
nan

> <actual_activity_value>
1.4436974992327127

> <Compound>
Thioridazine

> <standard_units>
uM

> hash
11666782688447714333

$$$$
52
XXILIB    08252103503D 0   0.00000     0.00000

 25 28  0     1  0            999 V2000
   -2.9887   -0.9075   -0.0001 S   0  0  0  0  0  2           0  0  0
    0.1951    0.8848    5.2005 S   0  0  0  0  0  2           0  0  0
    0.0000    0.0000    0.0000 N   0  0  1  0  0  3           0  0  0
    4.1464    0.8657    1.1952 N   0  0  1  0  0  3           0  0  0
   -2.0086   -0.3654    1.3808 C   0  0  0  0  0  4           0  0  0
   -2.0052   -0.3831   -1.3855 C   0  0  0  0  0  4           0  0  0
   -0.6376    0.4148    3.7040 C   0  0  0  0  0  4           0  0  0
   -0.6549    0.0000    1.2633 C   0  0  0  0  0  4           0  0  0
   -0.6503   -0.0172   -1.2652 C   0  0  0  0  0  4           0  0  0
    0.0045    0.3915    2.4546 C   0  0  0  0  0  4           0  0  0
   -2.6503   -0.3584    2.6314 C   0  0  0  0  0  4           0  0  0
   -2.6452   -0.3882   -2.6393 C   0  0  0  0  0  4           0  0  0
   -1.9708    0.0246    3.7833 C   0  0  0  0  0  4           0  0  0
    0.0114    0.3571   -2.4571 C   0  0  0  0  0  4           0  0  0
   -1.9594   -0.0233   -3.7917 C   0  0  0  0  0  4           0  0  0
   -0.6292    0.3515   -3.7003 C   0  0  0  0  0  4           0  0  0
    1.5254   -0.3448    5.2986 C   0  0  0  0  0  4           0  0  0
    3.5721    1.5180    0.0000 C   0  0  2  0  0  4           0  0  0
    1.4570    0.0000   -0.0000 C   0  0  0  0  0  4           0  0  0
    3.9758    1.6620    2.4186 C   0  0  0  0  0  4           0  0  0
    5.5426    0.4796    0.9915 C   0  0  0  0  0  4           0  0  0
    2.0408    1.4132    0.0000 C   0  0  0  0  0  4           0  0  0
    4.0277    2.9818   -0.1660 C   0  0  0  0  0  4           0  0  0
    4.4654    3.1056    2.3006 C   0  0  0  0  0  4           0  0  0
    3.8387    3.8074    1.1028 C   0  0  0  0  0  4           0  0  0
  1  5  1  0     0  0
  1  6  1  0     0  0
  2  7  1  0     0  0
  2 17  1  0     0  0
  3  8  1  0     0  0
  3  9  1  0     0  0
  3 19  1  0     0  0
  4 18  1  0     0  0
  4 20  1  0     0  0
  4 21  1  0     0  0
  5  8  2  0     0  0
  5 11  1  0     0  0
  6  9  2  0     0  0
  6 12  1  0     0  0
  7 10  2  0     0  0
  7 13  1  0     0  0
  8 10  1  0     0  0
  9 14  1  0     0  0
 11 13  2  0     0  0
 12 15  2  0     0  0
 14 16  2  0     0  0
 15 16  1  0     0  0
 18 22  1  0     0  0
 18 23  1  0     0  0
 19 22  1  0     0  0
 20 24  1  0     0  0
 23 25  1  0     0  0
 24 25  1  0     0  0
M  END
> <standard_type>
pIC50

> <# Confs.>
25

> <canonical_smiles>
CSC1=CC2=C(C=C1)SC3=C(C=CC=C3)N2CCC4N(C)CCCC4

> <standard_relation>
=

> <Publication_ID>
nan

> <predicted_activity_value>
nan

> <actual_activity_value>
1.4436974992327127

> <Compound>
Thioridazine

> <standard_units>
uM

> hash
11666782688447714333

$$$$
52
XXILIB    08252103503D 0   0.00000     0.00000

 25 28  0     1  0            999 V2000
   -3.0048   -0.8592    0.0003 S   0  0  0  0  0  2           0  0  0
    0.3269    0.8740    5.1322 S   0  0  0  0  0  2           0  0  0
    0.0000    0.0000    0.0000 N   0  0  1  0  0  3           0  0  0
    4.0895    2.9096    0.0000 N   0  0  1  0  0  3           0  0  0
   -2.0118   -0.3448    1.3826 C   0  0  0  0  0  4           0  0  0
   -2.0102   -0.3570   -1.3858 C   0  0  0  0  0  4           0  0  0
   -0.6192    0.3784    3.7132 C   0  0  0  0  0  4           0  0  0
   -0.6536    0.0000    1.2639 C   0  0  0  0  0  4           0  0  0
   -0.6499   -0.0111   -1.2655 C   0  0  0  0  0  4           0  0  0
    0.0124    0.3724    2.4571 C   0  0  0  0  0  4           0  0  0
   -2.6516   -0.3288    2.6348 C   0  0  0  0  0  4           0  0  0
   -2.6491   -0.3562   -2.6407 C   0  0  0  0  0  4           0  0  0
   -1.9637    0.0315    3.7902 C   0  0  0  0  0  4           0  0  0
    0.0181    0.3492   -2.4585 C   0  0  0  0  0  4           0  0  0
   -1.9569   -0.0048   -3.7937 C   0  0  0  0  0  4           0  0  0
   -0.6214    0.3503   -3.7019 C   0  0  0  0  0  4           0  0  0
   -0.6081    2.3086    5.7313 C   0  0  0  0  0  4           0  0  0
    3.5721    1.5180   -0.0000 C   0  0  2  0  0  4           0  0  0
    1.4570    0.0000    0.0000 C   0  0  0  0  0  4           0  0  0
    5.5633    2.9307   -0.0273 C   0  0  0  0  0  4           0  0  0
    3.6228    3.7078    1.1345 C   0  0  0  0  0  4           0  0  0
    2.0408    1.4132    0.0000 C   0  0  0  0  0  4           0  0  0
    4.0903    0.7767   -1.2540 C   0  0  0  0  0  4           0  0  0
    6.1179    2.2276   -1.2632 C   0  0  0  0  0  4           0  0  0
    5.6101    0.7982   -1.3469 C   0  0  0  0  0  4           0  0  0
  1  5  1  0     0  0
  1  6  1  0     0  0
  2  7  1  0     0  0
  2 17  1  0     0  0
  3  8  1  0     0  0
  3  9  1  0     0  0
  3 19  1  0     0  0
  4 18  1  0     0  0
  4 20  1  0     0  0
  4 21  1  0     0  0
  5  8  2  0     0  0
  5 11  1  0     0  0
  6  9  2  0     0  0
  6 12  1  0     0  0
  7 10  2  0     0  0
  7 13  1  0     0  0
  8 10  1  0     0  0
  9 14  1  0     0  0
 11 13  2  0     0  0
 12 15  2  0     0  0
 14 16  2  0     0  0
 15 16  1  0     0  0
 18 22  1  0     0  0
 18 23  1  0     0  0
 19 22  1  0     0  0
 20 24  1  0     0  0
 23 25  1  0     0  0
 24 25  1  0     0  0
M  END
> <standard_type>
pIC50

> <# Confs.>
25

> <canonical_smiles>
CSC1=CC2=C(C=C1)SC3=C(C=CC=C3)N2CCC4N(C)CCCC4

> <standard_relation>
=

> <Publication_ID>
nan

> <predicted_activity_value>
nan

> <actual_activity_value>
1.4436974992327127

> <Compound>
Thioridazine

> <standard_units>
uM

> hash
11666782688447714333

$$$$
52
XXILIB    08252103503D 0   0.00000     0.00000

 25 28  0     1  0            999 V2000
   -2.8185    1.2926    0.0131 S   0  0  0  0  0  2           0  0  0
    0.0576   -1.3788    5.0214 S   0  0  0  0  0  2           0  0  0
    0.0000   -0.0000    0.0000 N   0  0  1  0  0  3           0  0  0
    2.2566    3.7480   -0.8418 N   0  0  1  0  0  3           0  0  0
   -1.9584    0.5435    1.3820 C   0  0  0  0  0  4           0  0  0
   -1.9592    0.5765   -1.3746 C   0  0  0  0  0  4           0  0  0
   -0.7618   -0.6170    3.6421 C   0  0  0  0  0  4           0  0  0
   -0.6668   -0.0000    1.2515 C   0  0  0  0  0  4           0  0  0
   -0.6591    0.0458   -1.2573 C   0  0  0  0  0  4           0  0  0
   -0.1000   -0.5929    2.4026 C   0  0  0  0  0  4           0  0  0
   -2.6153    0.5414    2.6223 C   0  0  0  0  0  4           0  0  0
   -2.6145    0.6055   -2.6175 C   0  0  0  0  0  4           0  0  0
   -2.0189   -0.0270    3.7455 C   0  0  0  0  0  4           0  0  0
   -0.0639   -0.4652   -2.4305 C   0  0  0  0  0  4           0  0  0
   -1.9970    0.0999   -3.7569 C   0  0  0  0  0  4           0  0  0
   -0.7213   -0.4366   -3.6633 C   0  0  0  0  0  4           0  0  0
   -1.0993   -2.7029    5.4680 C   0  0  0  0  0  4           0  0  0
    1.6655    2.5922   -0.1214 C   0  0  2  0  0  4           0  0  0
    1.4570    0.0000    0.0000 C   0  0  0  0  0  4           0  0  0
    1.8750    5.0233   -0.2083 C   0  0  0  0  0  4           0  0  0
    1.9023    3.7967   -2.2611 C   0  0  0  0  0  4           0  0  0
    2.0408    1.2239   -0.7066 C   0  0  0  0  0  4           0  0  0
    2.1311    2.6126    1.3528 C   0  0  0  0  0  4           0  0  0
    2.3360    5.0950    1.2449 C   0  0  0  0  0  4           0  0  0
    1.7892    3.9251    2.0451 C   0  0  0  0  0  4           0  0  0
  1  5  1  0     0  0
  1  6  1  0     0  0
  2  7  1  0     0  0
  2 17  1  0     0  0
  3  8  1  0     0  0
  3  9  1  0     0  0
  3 19  1  0     0  0
  4 18  1  0     0  0
  4 20  1  0     0  0
  4 21  1  0     0  0
  5  8  2  0     0  0
  5 11  1  0     0  0
  6  9  2  0     0  0
  6 12  1  0     0  0
  7 10  2  0     0  0
  7 13  1  0     0  0
  8 10  1  0     0  0
  9 14  1  0     0  0
 11 13  2  0     0  0
 12 15  2  0     0  0
 14 16  2  0     0  0
 15 16  1  0     0  0
 18 22  1  0     0  0
 18 23  1  0     0  0
 19 22  1  0     0  0
 20 24  1  0     0  0
 23 25  1  0     0  0
 24 25  1  0     0  0
M  END
> <standard_type>
pIC50

> <# Confs.>
25

> <canonical_smiles>
CSC1=CC2=C(C=C1)SC3=C(C=CC=C3)N2CCC4N(C)CCCC4

> <standard_relation>
=

> <Publication_ID>
nan

> <predicted_activity_value>
nan

> <actual_activity_value>
1.4436974992327127

> <Compound>
Thioridazine

> <standard_units>
uM

> hash
11666782688447714333

$$$$
52
XXILIB    08252103503D 0   0.00000     0.00000

 25 28  0     1  0            999 V2000
   -2.8295   -1.2558    0.0012 S   0  0  0  0  0  2           0  0  0
   -0.0171    1.2954    5.1073 S   0  0  0  0  0  2           0  0  0
    0.0000    0.0000    0.0000 N   0  0  1  0  0  3           0  0  0
    2.2556   -3.7492   -0.8404 N   0  0  1  0  0  3           0  0  0
   -1.9640   -0.5273    1.3790 C   0  0  0  0  0  4           0  0  0
   -1.9725   -0.5158   -1.3762 C   0  0  0  0  0  4           0  0  0
   -0.7451    0.5956    3.6463 C   0  0  0  0  0  4           0  0  0
   -0.6648    0.0000    1.2531 C   0  0  0  0  0  4           0  0  0
   -0.6673    0.0013   -1.2524 C   0  0  0  0  0  4           0  0  0
   -0.0853    0.5748    2.4074 C   0  0  0  0  0  4           0  0  0
   -2.6197   -0.5259    2.6193 C   0  0  0  0  0  4           0  0  0
   -2.6347   -0.5057   -2.6153 C   0  0  0  0  0  4           0  0  0
   -2.0118    0.0231    3.7456 C   0  0  0  0  0  4           0  0  0
   -0.0775    0.5492   -2.4114 C   0  0  0  0  0  4           0  0  0
   -2.0217    0.0333   -3.7420 C   0  0  0  0  0  4           0  0  0
   -0.7440    0.5644   -3.6393 C   0  0  0  0  0  4           0  0  0
    1.4787    0.2885    5.3073 C   0  0  0  0  0  4           0  0  0
    1.6655   -2.5922   -0.1214 C   0  0  2  0  0  4           0  0  0
    1.4570    0.0000   -0.0000 C   0  0  0  0  0  4           0  0  0
    1.8594   -5.0230   -0.2118 C   0  0  0  0  0  4           0  0  0
    1.9154   -3.7923   -2.2632 C   0  0  0  0  0  4           0  0  0
    2.0408   -1.2239   -0.7066 C   0  0  0  0  0  4           0  0  0
    2.1364   -2.6159    1.3508 C   0  0  0  0  0  4           0  0  0
    2.3120   -5.1031    1.2435 C   0  0  0  0  0  4           0  0  0
    1.7834   -3.9248    2.0445 C   0  0  0  0  0  4           0  0  0
  1  5  1  0     0  0
  1  6  1  0     0  0
  2  7  1  0     0  0
  2 17  1  0     0  0
  3  8  1  0     0  0
  3  9  1  0     0  0
  3 19  1  0     0  0
  4 18  1  0     0  0
  4 20  1  0     0  0
  4 21  1  0     0  0
  5  8  2  0     0  0
  5 11  1  0     0  0
  6  9  2  0     0  0
  6 12  1  0     0  0
  7 10  2  0     0  0
  7 13  1  0     0  0
  8 10  1  0     0  0
  9 14  1  0     0  0
 11 13  2  0     0  0
 12 15  2  0     0  0
 14 16  2  0     0  0
 15 16  1  0     0  0
 18 22  1  0     0  0
 18 23  1  0     0  0
 19 22  1  0     0  0
 20 24  1  0     0  0
 23 25  1  0     0  0
 24 25  1  0     0  0
M  END
> <standard_type>
pIC50

> <# Confs.>
25

> <canonical_smiles>
CSC1=CC2=C(C=C1)SC3=C(C=CC=C3)N2CCC4N(C)CCCC4

> <standard_relation>
=

> <Publication_ID>
nan

> <predicted_activity_value>
nan

> <actual_activity_value>
1.4436974992327127

> <Compound>
Thioridazine

> <standard_units>
uM

> hash
11666782688447714333

$$$$
52
XXILIB    08252103503D 0   0.00000     0.00000

 25 28  0     1  0            999 V2000
   -2.8295   -1.2558    0.0012 S   0  0  0  0  0  2           0  0  0
   -0.0171    1.2954    5.1073 S   0  0  0  0  0  2           0  0  0
    0.0000    0.0000    0.0000 N   0  0  1  0  0  3           0  0  0
    2.2556   -3.7492   -0.8404 N   0  0  1  0  0  3           0  0  0
   -1.9640   -0.5273    1.3790 C   0  0  0  0  0  4           0  0  0
   -1.9725   -0.5158   -1.3762 C   0  0  0  0  0  4           0  0  0
   -0.7451    0.5956    3.6463 C   0  0  0  0  0  4           0  0  0
   -0.6648    0.0000    1.2531 C   0  0  0  0  0  4           0  0  0
   -0.6673    0.0013   -1.2524 C   0  0  0  0  0  4           0  0  0
   -0.0853    0.5748    2.4074 C   0  0  0  0  0  4           0  0  0
   -2.6197   -0.5259    2.6193 C   0  0  0  0  0  4           0  0  0
   -2.6347   -0.5057   -2.6153 C   0  0  0  0  0  4           0  0  0
   -2.0118    0.0231    3.7456 C   0  0  0  0  0  4           0  0  0
   -0.0775    0.5492   -2.4114 C   0  0  0  0  0  4           0  0  0
   -2.0217    0.0333   -3.7420 C   0  0  0  0  0  4           0  0  0
   -0.7440    0.5644   -3.6393 C   0  0  0  0  0  4           0  0  0
    0.2549    3.0186    4.6095 C   0  0  0  0  0  4           0  0  0
    1.6655   -2.5922   -0.1214 C   0  0  2  0  0  4           0  0  0
    1.4570    0.0000   -0.0000 C   0  0  0  0  0  4           0  0  0
    1.8594   -5.0230   -0.2118 C   0  0  0  0  0  4           0  0  0
    1.9154   -3.7923   -2.2632 C   0  0  0  0  0  4           0  0  0
    2.0408   -1.2239   -0.7066 C   0  0  0  0  0  4           0  0  0
    2.1364   -2.6159    1.3508 C   0  0  0  0  0  4           0  0  0
    2.3120   -5.1031    1.2435 C   0  0  0  0  0  4           0  0  0
    1.7834   -3.9248    2.0445 C   0  0  0  0  0  4           0  0  0
  1  5  1  0     0  0
  1  6  1  0     0  0
  2  7  1  0     0  0
  2 17  1  0     0  0
  3  8  1  0     0  0
  3  9  1  0     0  0
  3 19  1  0     0  0
  4 18  1  0     0  0
  4 20  1  0     0  0
  4 21  1  0     0  0
  5  8  2  0     0  0
  5 11  1  0     0  0
  6  9  2  0     0  0
  6 12  1  0     0  0
  7 10  2  0     0  0
  7 13  1  0     0  0
  8 10  1  0     0  0
  9 14  1  0     0  0
 11 13  2  0     0  0
 12 15  2  0     0  0
 14 16  2  0     0  0
 15 16  1  0     0  0
 18 22  1  0     0  0
 18 23  1  0     0  0
 19 22  1  0     0  0
 20 24  1  0     0  0
 23 25  1  0     0  0
 24 25  1  0     0  0
M  END
> <standard_type>
pIC50

> <# Confs.>
25

> <canonical_smiles>
CSC1=CC2=C(C=C1)SC3=C(C=CC=C3)N2CCC4N(C)CCCC4

> <standard_relation>
=

> <Publication_ID>
nan

> <predicted_activity_value>
nan

> <actual_activity_value>
1.4436974992327127

> <Compound>
Thioridazine

> <standard_units>
uM

> hash
11666782688447714333

$$$$
52
XXILIB    08252103503D 0   0.00000     0.00000

 25 28  0     1  0            999 V2000
   -2.8295   -1.2558    0.0012 S   0  0  0  0  0  2           0  0  0
   -0.0171    1.2954    5.1073 S   0  0  0  0  0  2           0  0  0
    0.0000    0.0000    0.0000 N   0  0  1  0  0  3           0  0  0
    2.2566   -3.7480    0.8418 N   0  0  1  0  0  3           0  0  0
   -1.9640   -0.5273    1.3790 C   0  0  0  0  0  4           0  0  0
   -1.9725   -0.5158   -1.3762 C   0  0  0  0  0  4           0  0  0
   -0.7451    0.5956    3.6463 C   0  0  0  0  0  4           0  0  0
   -0.6648    0.0000    1.2531 C   0  0  0  0  0  4           0  0  0
   -0.6673    0.0013   -1.2524 C   0  0  0  0  0  4           0  0  0
   -0.0853    0.5748    2.4074 C   0  0  0  0  0  4           0  0  0
   -2.6197   -0.5259    2.6193 C   0  0  0  0  0  4           0  0  0
   -2.6347   -0.5057   -2.6153 C   0  0  0  0  0  4           0  0  0
   -2.0118    0.0231    3.7456 C   0  0  0  0  0  4           0  0  0
   -0.0775    0.5492   -2.4114 C   0  0  0  0  0  4           0  0  0
   -2.0217    0.0333   -3.7420 C   0  0  0  0  0  4           0  0  0
   -0.7440    0.5644   -3.6393 C   0  0  0  0  0  4           0  0  0
    1.4787    0.2885    5.3073 C   0  0  0  0  0  4           0  0  0
    1.6655   -2.5922    0.1214 C   0  0  2  0  0  4           0  0  0
    1.4570    0.0000    0.0000 C   0  0  0  0  0  4           0  0  0
    1.8750   -5.0233    0.2083 C   0  0  0  0  0  4           0  0  0
    1.9023   -3.7967    2.2611 C   0  0  0  0  0  4           0  0  0
    2.0408   -1.2239    0.7066 C   0  0  0  0  0  4           0  0  0
    2.1311   -2.6126   -1.3528 C   0  0  0  0  0  4           0  0  0
    2.3360   -5.0950   -1.2449 C   0  0  0  0  0  4           0  0  0
    1.7892   -3.9251   -2.0451 C   0  0  0  0  0  4           0  0  0
  1  5  1  0     0  0
  1  6  1  0     0  0
  2  7  1  0     0  0
  2 17  1  0     0  0
  3  8  1  0     0  0
  3  9  1  0     0  0
  3 19  1  0     0  0
  4 18  1  0     0  0
  4 20  1  0     0  0
  4 21  1  0     0  0
  5  8  2  0     0  0
  5 11  1  0     0  0
  6  9  2  0     0  0
  6 12  1  0     0  0
  7 10  2  0     0  0
  7 13  1  0     0  0
  8 10  1  0     0  0
  9 14  1  0     0  0
 11 13  2  0     0  0
 12 15  2  0     0  0
 14 16  2  0     0  0
 15 16  1  0     0  0
 18 22  1  0     0  0
 18 23  1  0     0  0
 19 22  1  0     0  0
 20 24  1  0     0  0
 23 25  1  0     0  0
 24 25  1  0     0  0
M  END
> <standard_type>
pIC50

> <# Confs.>
25

> <canonical_smiles>
CSC1=CC2=C(C=C1)SC3=C(C=CC=C3)N2CCC4N(C)CCCC4

> <standard_relation>
=

> <Publication_ID>
nan

> <predicted_activity_value>
nan

> <actual_activity_value>
1.4436974992327127

> <Compound>
Thioridazine

> <standard_units>
uM

> hash
11666782688447714333

$$$$
52
XXILIB    08252103503D 0   0.00000     0.00000

 25 28  0     1  0            999 V2000
   -2.8295   -1.2558    0.0012 S   0  0  0  0  0  2           0  0  0
   -0.0171    1.2954    5.1073 S   0  0  0  0  0  2           0  0  0
    0.0000    0.0000    0.0000 N   0  0  1  0  0  3           0  0  0
    2.2566   -3.7480    0.8418 N   0  0  1  0  0  3           0  0  0
   -1.9640   -0.5273    1.3790 C   0  0  0  0  0  4           0  0  0
   -1.9725   -0.5158   -1.3762 C   0  0  0  0  0  4           0  0  0
   -0.7451    0.5956    3.6463 C   0  0  0  0  0  4           0  0  0
   -0.6648    0.0000    1.2531 C   0  0  0  0  0  4           0  0  0
   -0.6673    0.0013   -1.2524 C   0  0  0  0  0  4           0  0  0
   -0.0853    0.5748    2.4074 C   0  0  0  0  0  4           0  0  0
   -2.6197   -0.5259    2.6193 C   0  0  0  0  0  4           0  0  0
   -2.6347   -0.5057   -2.6153 C   0  0  0  0  0  4           0  0  0
   -2.0118    0.0231    3.7456 C   0  0  0  0  0  4           0  0  0
   -0.0775    0.5492   -2.4114 C   0  0  0  0  0  4           0  0  0
   -2.0217    0.0333   -3.7420 C   0  0  0  0  0  4           0  0  0
   -0.7440    0.5644   -3.6393 C   0  0  0  0  0  4           0  0  0
    0.2549    3.0186    4.6095 C   0  0  0  0  0  4           0  0  0
    1.6655   -2.5922    0.1214 C   0  0  2  0  0  4           0  0  0
    1.4570    0.0000    0.0000 C   0  0  0  0  0  4           0  0  0
    1.8750   -5.0233    0.2083 C   0  0  0  0  0  4           0  0  0
    1.9023   -3.7967    2.2611 C   0  0  0  0  0  4           0  0  0
    2.0408   -1.2239    0.7066 C   0  0  0  0  0  4           0  0  0
    2.1311   -2.6126   -1.3528 C   0  0  0  0  0  4           0  0  0
    2.3360   -5.0950   -1.2449 C   0  0  0  0  0  4           0  0  0
    1.7892   -3.9251   -2.0451 C   0  0  0  0  0  4           0  0  0
  1  5  1  0     0  0
  1  6  1  0     0  0
  2  7  1  0     0  0
  2 17  1  0     0  0
  3  8  1  0     0  0
  3  9  1  0     0  0
  3 19  1  0     0  0
  4 18  1  0     0  0
  4 20  1  0     0  0
  4 21  1  0     0  0
  5  8  2  0     0  0
  5 11  1  0     0  0
  6  9  2  0     0  0
  6 12  1  0     0  0
  7 10  2  0     0  0
  7 13  1  0     0  0
  8 10  1  0     0  0
  9 14  1  0     0  0
 11 13  2  0     0  0
 12 15  2  0     0  0
 14 16  2  0     0  0
 15 16  1  0     0  0
 18 22  1  0     0  0
 18 23  1  0     0  0
 19 22  1  0     0  0
 20 24  1  0     0  0
 23 25  1  0     0  0
 24 25  1  0     0  0
M  END
> <standard_type>
pIC50

> <# Confs.>
25

> <canonical_smiles>
CSC1=CC2=C(C=C1)SC3=C(C=CC=C3)N2CCC4N(C)CCCC4

> <standard_relation>
=

> <Publication_ID>
nan

> <predicted_activity_value>
nan

> <actual_activity_value>
1.4436974992327127

> <Compound>
Thioridazine

> <standard_units>
uM

> hash
11666782688447714333

$$$$
52
XXILIB    08252103503D 0   0.00000     0.00000

 25 28  0     1  0            999 V2000
   -2.8185    1.2926    0.0131 S   0  0  0  0  0  2           0  0  0
    0.0576   -1.3788    5.0214 S   0  0  0  0  0  2           0  0  0
    0.0000   -0.0000    0.0000 N   0  0  1  0  0  3           0  0  0
    2.2566    3.7480   -0.8418 N   0  0  1  0  0  3           0  0  0
   -1.9584    0.5435    1.3820 C   0  0  0  0  0  4           0  0  0
   -1.9592    0.5765   -1.3746 C   0  0  0  0  0  4           0  0  0
   -0.7618   -0.6170    3.6421 C   0  0  0  0  0  4           0  0  0
   -0.6668   -0.0000    1.2515 C   0  0  0  0  0  4           0  0  0
   -0.6591    0.0458   -1.2573 C   0  0  0  0  0  4           0  0  0
   -0.1000   -0.5929    2.4026 C   0  0  0  0  0  4           0  0  0
   -2.6153    0.5414    2.6223 C   0  0  0  0  0  4           0  0  0
   -2.6145    0.6055   -2.6175 C   0  0  0  0  0  4           0  0  0
   -2.0189   -0.0270    3.7455 C   0  0  0  0  0  4           0  0  0
   -0.0639   -0.4652   -2.4305 C   0  0  0  0  0  4           0  0  0
   -1.9970    0.0999   -3.7569 C   0  0  0  0  0  4           0  0  0
   -0.7213   -0.4366   -3.6633 C   0  0  0  0  0  4           0  0  0
    0.1750   -0.0053    6.2008 C   0  0  0  0  0  4           0  0  0
    1.6655    2.5922   -0.1214 C   0  0  2  0  0  4           0  0  0
    1.4570    0.0000    0.0000 C   0  0  0  0  0  4           0  0  0
    1.8750    5.0233   -0.2083 C   0  0  0  0  0  4           0  0  0
    1.9023    3.7967   -2.2611 C   0  0  0  0  0  4           0  0  0
    2.0408    1.2239   -0.7066 C   0  0  0  0  0  4           0  0  0
    2.1311    2.6126    1.3528 C   0  0  0  0  0  4           0  0  0
    2.3360    5.0950    1.2449 C   0  0  0  0  0  4           0  0  0
    1.7892    3.9251    2.0451 C   0  0  0  0  0  4           0  0  0
  1  5  1  0     0  0
  1  6  1  0     0  0
  2  7  1  0     0  0
  2 17  1  0     0  0
  3  8  1  0     0  0
  3  9  1  0     0  0
  3 19  1  0     0  0
  4 18  1  0     0  0
  4 20  1  0     0  0
  4 21  1  0     0  0
  5  8  2  0     0  0
  5 11  1  0     0  0
  6  9  2  0     0  0
  6 12  1  0     0  0
  7 10  2  0     0  0
  7 13  1  0     0  0
  8 10  1  0     0  0
  9 14  1  0     0  0
 11 13  2  0     0  0
 12 15  2  0     0  0
 14 16  2  0     0  0
 15 16  1  0     0  0
 18 22  1  0     0  0
 18 23  1  0     0  0
 19 22  1  0     0  0
 20 24  1  0     0  0
 23 25  1  0     0  0
 24 25  1  0     0  0
M  END
> <standard_type>
pIC50

> <# Confs.>
25

> <canonical_smiles>
CSC1=CC2=C(C=C1)SC3=C(C=CC=C3)N2CCC4N(C)CCCC4

> <standard_relation>
=

> <Publication_ID>
nan

> <predicted_activity_value>
nan

> <actual_activity_value>
1.4436974992327127

> <Compound>
Thioridazine

> <standard_units>
uM

> hash
11666782688447714333

$$$$
52
XXILIB    08252103503D 0   0.00000     0.00000

 25 28  0     1  0            999 V2000
   -2.9887   -0.9075   -0.0001 S   0  0  0  0  0  2           0  0  0
    0.1951    0.8848    5.2005 S   0  0  0  0  0  2           0  0  0
    0.0000    0.0000    0.0000 N   0  0  1  0  0  3           0  0  0
    4.0914    2.9087    0.0000 N   0  0  1  0  0  3           0  0  0
   -2.0086   -0.3654    1.3808 C   0  0  0  0  0  4           0  0  0
   -2.0052   -0.3831   -1.3855 C   0  0  0  0  0  4           0  0  0
   -0.6376    0.4148    3.7040 C   0  0  0  0  0  4           0  0  0
   -0.6549    0.0000    1.2633 C   0  0  0  0  0  4           0  0  0
   -0.6503   -0.0172   -1.2652 C   0  0  0  0  0  4           0  0  0
    0.0045    0.3915    2.4546 C   0  0  0  0  0  4           0  0  0
   -2.6503   -0.3584    2.6314 C   0  0  0  0  0  4           0  0  0
   -2.6452   -0.3882   -2.6393 C   0  0  0  0  0  4           0  0  0
   -1.9708    0.0246    3.7833 C   0  0  0  0  0  4           0  0  0
    0.0114    0.3571   -2.4571 C   0  0  0  0  0  4           0  0  0
   -1.9594   -0.0233   -3.7917 C   0  0  0  0  0  4           0  0  0
   -0.6292    0.3515   -3.7003 C   0  0  0  0  0  4           0  0  0
    0.7177    2.5818    4.8289 C   0  0  0  0  0  4           0  0  0
    3.5721    1.5180   -0.0000 C   0  0  2  0  0  4           0  0  0
    1.4570    0.0000    0.0000 C   0  0  0  0  0  4           0  0  0
    5.5659    2.9247    0.0127 C   0  0  0  0  0  4           0  0  0
    3.6144    3.7139   -1.1252 C   0  0  0  0  0  4           0  0  0
    2.0408    1.4132    0.0000 C   0  0  0  0  0  4           0  0  0
    4.0907    0.7827    1.2569 C   0  0  0  0  0  4           0  0  0
    6.1310    2.2200    1.2429 C   0  0  0  0  0  4           0  0  0
    5.6112    0.7954    1.3419 C   0  0  0  0  0  4           0  0  0
  1  5  1  0     0  0
  1  6  1  0     0  0
  2  7  1  0     0  0
  2 17  1  0     0  0
  3  8  1  0     0  0
  3  9  1  0     0  0
  3 19  1  0     0  0
  4 18  1  0     0  0
  4 20  1  0     0  0
  4 21  1  0     0  0
  5  8  2  0     0  0
  5 11  1  0     0  0
  6  9  2  0     0  0
  6 12  1  0     0  0
  7 10  2  0     0  0
  7 13  1  0     0  0
  8 10  1  0     0  0
  9 14  1  0     0  0
 11 13  2  0     0  0
 12 15  2  0     0  0
 14 16  2  0     0  0
 15 16  1  0     0  0
 18 22  1  0     0  0
 18 23  1  0     0  0
 19 22  1  0     0  0
 20 24  1  0     0  0
 23 25  1  0     0  0
 24 25  1  0     0  0
M  END
> <standard_type>
pIC50

> <# Confs.>
25

> <canonical_smiles>
CSC1=CC2=C(C=C1)SC3=C(C=CC=C3)N2CCC4N(C)CCCC4

> <standard_relation>
=

> <Publication_ID>
nan

> <predicted_activity_value>
nan

> <actual_activity_value>
1.4436974992327127

> <Compound>
Thioridazine

> <standard_units>
uM

> hash
11666782688447714333

$$$$
52
XXILIB    08252103503D 0   0.00000     0.00000

 25 28  0     1  0            999 V2000
   -3.0048   -0.8592    0.0003 S   0  0  0  0  0  2           0  0  0
    0.3269    0.8740    5.1322 S   0  0  0  0  0  2           0  0  0
    0.0000    0.0000    0.0000 N   0  0  1  0  0  3           0  0  0
    4.0895    2.9096    0.0000 N   0  0  1  0  0  3           0  0  0
   -2.0118   -0.3448    1.3826 C   0  0  0  0  0  4           0  0  0
   -2.0102   -0.3570   -1.3858 C   0  0  0  0  0  4           0  0  0
   -0.6192    0.3784    3.7132 C   0  0  0  0  0  4           0  0  0
   -0.6536    0.0000    1.2639 C   0  0  0  0  0  4           0  0  0
   -0.6499   -0.0111   -1.2655 C   0  0  0  0  0  4           0  0  0
    0.0124    0.3724    2.4571 C   0  0  0  0  0  4           0  0  0
   -2.6516   -0.3288    2.6348 C   0  0  0  0  0  4           0  0  0
   -2.6491   -0.3562   -2.6407 C   0  0  0  0  0  4           0  0  0
   -1.9637    0.0315    3.7902 C   0  0  0  0  0  4           0  0  0
    0.0181    0.3492   -2.4585 C   0  0  0  0  0  4           0  0  0
   -1.9569   -0.0048   -3.7937 C   0  0  0  0  0  4           0  0  0
   -0.6214    0.3503   -3.7019 C   0  0  0  0  0  4           0  0  0
    0.2509   -0.6072    6.1770 C   0  0  0  0  0  4           0  0  0
    3.5721    1.5180   -0.0000 C   0  0  2  0  0  4           0  0  0
    1.4570    0.0000    0.0000 C   0  0  0  0  0  4           0  0  0
    5.5633    2.9307   -0.0273 C   0  0  0  0  0  4           0  0  0
    3.6228    3.7078    1.1345 C   0  0  0  0  0  4           0  0  0
    2.0408    1.4132    0.0000 C   0  0  0  0  0  4           0  0  0
    4.0903    0.7767   -1.2540 C   0  0  0  0  0  4           0  0  0
    6.1179    2.2276   -1.2632 C   0  0  0  0  0  4           0  0  0
    5.6101    0.7982   -1.3469 C   0  0  0  0  0  4           0  0  0
  1  5  1  0     0  0
  1  6  1  0     0  0
  2  7  1  0     0  0
  2 17  1  0     0  0
  3  8  1  0     0  0
  3  9  1  0     0  0
  3 19  1  0     0  0
  4 18  1  0     0  0
  4 20  1  0     0  0
  4 21  1  0     0  0
  5  8  2  0     0  0
  5 11  1  0     0  0
  6  9  2  0     0  0
  6 12  1  0     0  0
  7 10  2  0     0  0
  7 13  1  0     0  0
  8 10  1  0     0  0
  9 14  1  0     0  0
 11 13  2  0     0  0
 12 15  2  0     0  0
 14 16  2  0     0  0
 15 16  1  0     0  0
 18 22  1  0     0  0
 18 23  1  0     0  0
 19 22  1  0     0  0
 20 24  1  0     0  0
 23 25  1  0     0  0
 24 25  1  0     0  0
M  END
> <standard_type>
pIC50

> <# Confs.>
25

> <canonical_smiles>
CSC1=CC2=C(C=C1)SC3=C(C=CC=C3)N2CCC4N(C)CCCC4

> <standard_relation>
=

> <Publication_ID>
nan

> <predicted_activity_value>
nan

> <actual_activity_value>
1.4436974992327127

> <Compound>
Thioridazine

> <standard_units>
uM

> hash
11666782688447714333

$$$$
52
XXILIB    08252103503D 0   0.00000     0.00000

 25 28  0     1  0            999 V2000
   -2.9949    0.8912    0.0058 S   0  0  0  0  0  2           0  0  0
    0.3195   -0.9131    5.1247 S   0  0  0  0  0  2           0  0  0
    0.0000   -0.0000    0.0000 N   0  0  1  0  0  3           0  0  0
    4.1469   -0.8658    1.1951 N   0  0  1  0  0  3           0  0  0
   -2.0067    0.3598    1.3854 C   0  0  0  0  0  4           0  0  0
   -2.0065    0.3842   -1.3828 C   0  0  0  0  0  4           0  0  0
   -0.6211   -0.3940    3.7105 C   0  0  0  0  0  4           0  0  0
   -0.6526    0.0000    1.2641 C   0  0  0  0  0  4           0  0  0
   -0.6501    0.0226   -1.2647 C   0  0  0  0  0  4           0  0  0
    0.0095   -0.3887    2.4540 C   0  0  0  0  0  4           0  0  0
   -2.6449    0.3465    2.6379 C   0  0  0  0  0  4           0  0  0
   -2.6451    0.3967   -2.6375 C   0  0  0  0  0  4           0  0  0
   -1.9602   -0.0283    3.7906 C   0  0  0  0  0  4           0  0  0
    0.0134   -0.3413   -2.4590 C   0  0  0  0  0  4           0  0  0
   -1.9577    0.0407   -3.7919 C   0  0  0  0  0  4           0  0  0
   -0.6267   -0.3311   -3.7021 C   0  0  0  0  0  4           0  0  0
   -0.6354   -2.3382    5.7151 C   0  0  0  0  0  4           0  0  0
    3.5721   -1.5180    0.0000 C   0  0  2  0  0  4           0  0  0
    1.4570    0.0000   -0.0000 C   0  0  0  0  0  4           0  0  0
    3.9738   -1.6615    2.4188 C   0  0  0  0  0  4           0  0  0
    5.5445   -0.4840    0.9921 C   0  0  0  0  0  4           0  0  0
    2.0408   -1.4132   -0.0000 C   0  0  0  0  0  4           0  0  0
    4.0280   -2.9817   -0.1658 C   0  0  0  0  0  4           0  0  0
    4.4609   -3.1063    2.3020 C   0  0  0  0  0  4           0  0  0
    3.8361   -3.8076    1.1028 C   0  0  0  0  0  4           0  0  0
  1  5  1  0     0  0
  1  6  1  0     0  0
  2  7  1  0     0  0
  2 17  1  0     0  0
  3  8  1  0     0  0
  3  9  1  0     0  0
  3 19  1  0     0  0
  4 18  1  0     0  0
  4 20  1  0     0  0
  4 21  1  0     0  0
  5  8  2  0     0  0
  5 11  1  0     0  0
  6  9  2  0     0  0
  6 12  1  0     0  0
  7 10  2  0     0  0
  7 13  1  0     0  0
  8 10  1  0     0  0
  9 14  1  0     0  0
 11 13  2  0     0  0
 12 15  2  0     0  0
 14 16  2  0     0  0
 15 16  1  0     0  0
 18 22  1  0     0  0
 18 23  1  0     0  0
 19 22  1  0     0  0
 20 24  1  0     0  0
 23 25  1  0     0  0
 24 25  1  0     0  0
M  END
> <standard_type>
pIC50

> <# Confs.>
25

> <canonical_smiles>
CSC1=CC2=C(C=C1)SC3=C(C=CC=C3)N2CCC4N(C)CCCC4

> <standard_relation>
=

> <Publication_ID>
nan

> <predicted_activity_value>
nan

> <actual_activity_value>
1.4436974992327127

> <Compound>
Thioridazine

> <standard_units>
uM

> hash
11666782688447714333

$$$$
52
XXILIB    08252103503D 0   0.00000     0.00000

 25 28  0     1  0            999 V2000
   -3.0048   -0.8592    0.0003 S   0  0  0  0  0  2           0  0  0
    0.3269    0.8740    5.1322 S   0  0  0  0  0  2           0  0  0
    0.0000    0.0000    0.0000 N   0  0  1  0  0  3           0  0  0
    4.1469    0.8658   -1.1951 N   0  0  1  0  0  3           0  0  0
   -2.0118   -0.3448    1.3826 C   0  0  0  0  0  4           0  0  0
   -2.0102   -0.3570   -1.3858 C   0  0  0  0  0  4           0  0  0
   -0.6192    0.3784    3.7132 C   0  0  0  0  0  4           0  0  0
   -0.6536    0.0000    1.2639 C   0  0  0  0  0  4           0  0  0
   -0.6499   -0.0111   -1.2655 C   0  0  0  0  0  4           0  0  0
    0.0124    0.3724    2.4571 C   0  0  0  0  0  4           0  0  0
   -2.6516   -0.3288    2.6348 C   0  0  0  0  0  4           0  0  0
   -2.6491   -0.3562   -2.6407 C   0  0  0  0  0  4           0  0  0
   -1.9637    0.0315    3.7902 C   0  0  0  0  0  4           0  0  0
    0.0181    0.3492   -2.4585 C   0  0  0  0  0  4           0  0  0
   -1.9569   -0.0048   -3.7937 C   0  0  0  0  0  4           0  0  0
   -0.6214    0.3503   -3.7019 C   0  0  0  0  0  4           0  0  0
    0.2509   -0.6072    6.1770 C   0  0  0  0  0  4           0  0  0
    3.5721    1.5180    0.0000 C   0  0  2  0  0  4           0  0  0
    1.4570   -0.0000   -0.0000 C   0  0  0  0  0  4           0  0  0
    3.9738    1.6615   -2.4188 C   0  0  0  0  0  4           0  0  0
    5.5445    0.4840   -0.9921 C   0  0  0  0  0  4           0  0  0
    2.0408    1.4132    0.0000 C   0  0  0  0  0  4           0  0  0
    4.0280    2.9817    0.1658 C   0  0  0  0  0  4           0  0  0
    4.4609    3.1063   -2.3020 C   0  0  0  0  0  4           0  0  0
    3.8361    3.8076   -1.1028 C   0  0  0  0  0  4           0  0  0
  1  5  1  0     0  0
  1  6  1  0     0  0
  2  7  1  0     0  0
  2 17  1  0     0  0
  3  8  1  0     0  0
  3  9  1  0     0  0
  3 19  1  0     0  0
  4 18  1  0     0  0
  4 20  1  0     0  0
  4 21  1  0     0  0
  5  8  2  0     0  0
  5 11  1  0     0  0
  6  9  2  0     0  0
  6 12  1  0     0  0
  7 10  2  0     0  0
  7 13  1  0     0  0
  8 10  1  0     0  0
  9 14  1  0     0  0
 11 13  2  0     0  0
 12 15  2  0     0  0
 14 16  2  0     0  0
 15 16  1  0     0  0
 18 22  1  0     0  0
 18 23  1  0     0  0
 19 22  1  0     0  0
 20 24  1  0     0  0
 23 25  1  0     0  0
 24 25  1  0     0  0
M  END
> <standard_type>
pIC50

> <# Confs.>
25

> <canonical_smiles>
CSC1=CC2=C(C=C1)SC3=C(C=CC=C3)N2CCC4N(C)CCCC4

> <standard_relation>
=

> <Publication_ID>
nan

> <predicted_activity_value>
nan

> <actual_activity_value>
1.4436974992327127

> <Compound>
Thioridazine

> <standard_units>
uM

> hash
11666782688447714333

$$$$
52
XXILIB    08252103503D 0   0.00000     0.00000

 25 28  0     1  0            999 V2000
   -2.8185    1.2926    0.0131 S   0  0  0  0  0  2           0  0  0
    0.0576   -1.3788    5.0214 S   0  0  0  0  0  2           0  0  0
    0.0000   -0.0000    0.0000 N   0  0  1  0  0  3           0  0  0
    2.2556    3.7492    0.8404 N   0  0  1  0  0  3           0  0  0
   -1.9584    0.5435    1.3820 C   0  0  0  0  0  4           0  0  0
   -1.9592    0.5765   -1.3746 C   0  0  0  0  0  4           0  0  0
   -0.7618   -0.6170    3.6421 C   0  0  0  0  0  4           0  0  0
   -0.6668   -0.0000    1.2515 C   0  0  0  0  0  4           0  0  0
   -0.6591    0.0458   -1.2573 C   0  0  0  0  0  4           0  0  0
   -0.1000   -0.5929    2.4026 C   0  0  0  0  0  4           0  0  0
   -2.6153    0.5414    2.6223 C   0  0  0  0  0  4           0  0  0
   -2.6145    0.6055   -2.6175 C   0  0  0  0  0  4           0  0  0
   -2.0189   -0.0270    3.7455 C   0  0  0  0  0  4           0  0  0
   -0.0639   -0.4652   -2.4305 C   0  0  0  0  0  4           0  0  0
   -1.9970    0.0999   -3.7569 C   0  0  0  0  0  4           0  0  0
   -0.7213   -0.4366   -3.6633 C   0  0  0  0  0  4           0  0  0
   -1.0993   -2.7029    5.4680 C   0  0  0  0  0  4           0  0  0
    1.6655    2.5922    0.1214 C   0  0  2  0  0  4           0  0  0
    1.4570   -0.0000    0.0000 C   0  0  0  0  0  4           0  0  0
    1.8594    5.0230    0.2118 C   0  0  0  0  0  4           0  0  0
    1.9154    3.7923    2.2632 C   0  0  0  0  0  4           0  0  0
    2.0408    1.2239    0.7066 C   0  0  0  0  0  4           0  0  0
    2.1364    2.6159   -1.3508 C   0  0  0  0  0  4           0  0  0
    2.3120    5.1031   -1.2435 C   0  0  0  0  0  4           0  0  0
    1.7834    3.9248   -2.0445 C   0  0  0  0  0  4           0  0  0
  1  5  1  0     0  0
  1  6  1  0     0  0
  2  7  1  0     0  0
  2 17  1  0     0  0
  3  8  1  0     0  0
  3  9  1  0     0  0
  3 19  1  0     0  0
  4 18  1  0     0  0
  4 20  1  0     0  0
  4 21  1  0     0  0
  5  8  2  0     0  0
  5 11  1  0     0  0
  6  9  2  0     0  0
  6 12  1  0     0  0
  7 10  2  0     0  0
  7 13  1  0     0  0
  8 10  1  0     0  0
  9 14  1  0     0  0
 11 13  2  0     0  0
 12 15  2  0     0  0
 14 16  2  0     0  0
 15 16  1  0     0  0
 18 22  1  0     0  0
 18 23  1  0     0  0
 19 22  1  0     0  0
 20 24  1  0     0  0
 23 25  1  0     0  0
 24 25  1  0     0  0
M  END
> <standard_type>
pIC50

> <# Confs.>
25

> <canonical_smiles>
CSC1=CC2=C(C=C1)SC3=C(C=CC=C3)N2CCC4N(C)CCCC4

> <standard_relation>
=

> <Publication_ID>
nan

> <predicted_activity_value>
nan

> <actual_activity_value>
1.4436974992327127

> <Compound>
Thioridazine

> <standard_units>
uM

> hash
11666782688447714333

$$$$
52
XXILIB    08252103503D 0   0.00000     0.00000

 25 28  0     1  0            999 V2000
   -3.0048   -0.8592    0.0003 S   0  0  0  0  0  2           0  0  0
    0.3269    0.8740    5.1322 S   0  0  0  0  0  2           0  0  0
    0.0000    0.0000    0.0000 N   0  0  1  0  0  3           0  0  0
    4.1469    0.8658   -1.1951 N   0  0  1  0  0  3           0  0  0
   -2.0118   -0.3448    1.3826 C   0  0  0  0  0  4           0  0  0
   -2.0102   -0.3570   -1.3858 C   0  0  0  0  0  4           0  0  0
   -0.6192    0.3784    3.7132 C   0  0  0  0  0  4           0  0  0
   -0.6536    0.0000    1.2639 C   0  0  0  0  0  4           0  0  0
   -0.6499   -0.0111   -1.2655 C   0  0  0  0  0  4           0  0  0
    0.0124    0.3724    2.4571 C   0  0  0  0  0  4           0  0  0
   -2.6516   -0.3288    2.6348 C   0  0  0  0  0  4           0  0  0
   -2.6491   -0.3562   -2.6407 C   0  0  0  0  0  4           0  0  0
   -1.9637    0.0315    3.7902 C   0  0  0  0  0  4           0  0  0
    0.0181    0.3492   -2.4585 C   0  0  0  0  0  4           0  0  0
   -1.9569   -0.0048   -3.7937 C   0  0  0  0  0  4           0  0  0
   -0.6214    0.3503   -3.7019 C   0  0  0  0  0  4           0  0  0
   -0.6081    2.3086    5.7313 C   0  0  0  0  0  4           0  0  0
    3.5721    1.5180    0.0000 C   0  0  2  0  0  4           0  0  0
    1.4570   -0.0000   -0.0000 C   0  0  0  0  0  4           0  0  0
    3.9738    1.6615   -2.4188 C   0  0  0  0  0  4           0  0  0
    5.5445    0.4840   -0.9921 C   0  0  0  0  0  4           0  0  0
    2.0408    1.4132    0.0000 C   0  0  0  0  0  4           0  0  0
    4.0280    2.9817    0.1658 C   0  0  0  0  0  4           0  0  0
    4.4609    3.1063   -2.3020 C   0  0  0  0  0  4           0  0  0
    3.8361    3.8076   -1.1028 C   0  0  0  0  0  4           0  0  0
  1  5  1  0     0  0
  1  6  1  0     0  0
  2  7  1  0     0  0
  2 17  1  0     0  0
  3  8  1  0     0  0
  3  9  1  0     0  0
  3 19  1  0     0  0
  4 18  1  0     0  0
  4 20  1  0     0  0
  4 21  1  0     0  0
  5  8  2  0     0  0
  5 11  1  0     0  0
  6  9  2  0     0  0
  6 12  1  0     0  0
  7 10  2  0     0  0
  7 13  1  0     0  0
  8 10  1  0     0  0
  9 14  1  0     0  0
 11 13  2  0     0  0
 12 15  2  0     0  0
 14 16  2  0     0  0
 15 16  1  0     0  0
 18 22  1  0     0  0
 18 23  1  0     0  0
 19 22  1  0     0  0
 20 24  1  0     0  0
 23 25  1  0     0  0
 24 25  1  0     0  0
M  END
> <standard_type>
pIC50

> <# Confs.>
25

> <canonical_smiles>
CSC1=CC2=C(C=C1)SC3=C(C=CC=C3)N2CCC4N(C)CCCC4

> <standard_relation>
=

> <Publication_ID>
nan

> <predicted_activity_value>
nan

> <actual_activity_value>
1.4436974992327127

> <Compound>
Thioridazine

> <standard_units>
uM

> hash
11666782688447714333

$$$$
52
XXILIB    08252103503D 0   0.00000     0.00000

 25 28  0     1  0            999 V2000
   -2.9995    0.8824    0.0080 S   0  0  0  0  0  2           0  0  0
    0.2146   -0.8760    5.2027 S   0  0  0  0  0  2           0  0  0
    0.0000   -0.0000    0.0000 N   0  0  1  0  0  3           0  0  0
    4.0895   -2.9096    0.0000 N   0  0  1  0  0  3           0  0  0
   -2.0069    0.3575    1.3864 C   0  0  0  0  0  4           0  0  0
   -2.0062    0.3921   -1.3828 C   0  0  0  0  0  4           0  0  0
   -0.6164   -0.3862    3.7115 C   0  0  0  0  0  4           0  0  0
   -0.6518    0.0000    1.2652 C   0  0  0  0  0  4           0  0  0
   -0.6494    0.0322   -1.2654 C   0  0  0  0  0  4           0  0  0
    0.0135   -0.3850    2.4559 C   0  0  0  0  0  4           0  0  0
   -2.6445    0.3452    2.6390 C   0  0  0  0  0  4           0  0  0
   -2.6421    0.4182   -2.6390 C   0  0  0  0  0  4           0  0  0
   -1.9575   -0.0252    3.7909 C   0  0  0  0  0  4           0  0  0
    0.0165   -0.3174   -2.4627 C   0  0  0  0  0  4           0  0  0
   -1.9514    0.0788   -3.7963 C   0  0  0  0  0  4           0  0  0
   -0.6201   -0.2922   -3.7075 C   0  0  0  0  0  4           0  0  0
    1.5815    0.3139    5.2856 C   0  0  0  0  0  4           0  0  0
    3.5721   -1.5180    0.0000 C   0  0  2  0  0  4           0  0  0
    1.4570   -0.0000   -0.0000 C   0  0  0  0  0  4           0  0  0
    5.5633   -2.9307    0.0273 C   0  0  0  0  0  4           0  0  0
    3.6228   -3.7078   -1.1345 C   0  0  0  0  0  4           0  0  0
    2.0408   -1.4132    0.0000 C   0  0  0  0  0  4           0  0  0
    4.0903   -0.7767    1.2540 C   0  0  0  0  0  4           0  0  0
    6.1179   -2.2276    1.2632 C   0  0  0  0  0  4           0  0  0
    5.6101   -0.7982    1.3469 C   0  0  0  0  0  4           0  0  0
  1  5  1  0     0  0
  1  6  1  0     0  0
  2  7  1  0     0  0
  2 17  1  0     0  0
  3  8  1  0     0  0
  3  9  1  0     0  0
  3 19  1  0     0  0
  4 18  1  0     0  0
  4 20  1  0     0  0
  4 21  1  0     0  0
  5  8  2  0     0  0
  5 11  1  0     0  0
  6  9  2  0     0  0
  6 12  1  0     0  0
  7 10  2  0     0  0
  7 13  1  0     0  0
  8 10  1  0     0  0
  9 14  1  0     0  0
 11 13  2  0     0  0
 12 15  2  0     0  0
 14 16  2  0     0  0
 15 16  1  0     0  0
 18 22  1  0     0  0
 18 23  1  0     0  0
 19 22  1  0     0  0
 20 24  1  0     0  0
 23 25  1  0     0  0
 24 25  1  0     0  0
M  END
> <standard_type>
pIC50

> <# Confs.>
25

> <canonical_smiles>
CSC1=CC2=C(C=C1)SC3=C(C=CC=C3)N2CCC4N(C)CCCC4

> <standard_relation>
=

> <Publication_ID>
nan

> <predicted_activity_value>
nan

> <actual_activity_value>
1.4436974992327127

> <Compound>
Thioridazine

> <standard_units>
uM

> hash
11666782688447714333

$$$$
52
XXILIB    08252103503D 0   0.00000     0.00000

 25 28  0     1  0            999 V2000
   -3.0048   -0.8592    0.0003 S   0  0  0  0  0  2           0  0  0
    0.3269    0.8740    5.1322 S   0  0  0  0  0  2           0  0  0
    0.0000    0.0000    0.0000 N   0  0  1  0  0  3           0  0  0
    4.1464    0.8657    1.1952 N   0  0  1  0  0  3           0  0  0
   -2.0118   -0.3448    1.3826 C   0  0  0  0  0  4           0  0  0
   -2.0102   -0.3570   -1.3858 C   0  0  0  0  0  4           0  0  0
   -0.6192    0.3784    3.7132 C   0  0  0  0  0  4           0  0  0
   -0.6536    0.0000    1.2639 C   0  0  0  0  0  4           0  0  0
   -0.6499   -0.0111   -1.2655 C   0  0  0  0  0  4           0  0  0
    0.0124    0.3724    2.4571 C   0  0  0  0  0  4           0  0  0
   -2.6516   -0.3288    2.6348 C   0  0  0  0  0  4           0  0  0
   -2.6491   -0.3562   -2.6407 C   0  0  0  0  0  4           0  0  0
   -1.9637    0.0315    3.7902 C   0  0  0  0  0  4           0  0  0
    0.0181    0.3492   -2.4585 C   0  0  0  0  0  4           0  0  0
   -1.9569   -0.0048   -3.7937 C   0  0  0  0  0  4           0  0  0
   -0.6214    0.3503   -3.7019 C   0  0  0  0  0  4           0  0  0
   -0.6081    2.3086    5.7313 C   0  0  0  0  0  4           0  0  0
    3.5721    1.5180    0.0000 C   0  0  2  0  0  4           0  0  0
    1.4570    0.0000   -0.0000 C   0  0  0  0  0  4           0  0  0
    3.9758    1.6620    2.4186 C   0  0  0  0  0  4           0  0  0
    5.5426    0.4796    0.9915 C   0  0  0  0  0  4           0  0  0
    2.0408    1.4132    0.0000 C   0  0  0  0  0  4           0  0  0
    4.0277    2.9818   -0.1660 C   0  0  0  0  0  4           0  0  0
    4.4654    3.1056    2.3006 C   0  0  0  0  0  4           0  0  0
    3.8387    3.8074    1.1028 C   0  0  0  0  0  4           0  0  0
  1  5  1  0     0  0
  1  6  1  0     0  0
  2  7  1  0     0  0
  2 17  1  0     0  0
  3  8  1  0     0  0
  3  9  1  0     0  0
  3 19  1  0     0  0
  4 18  1  0     0  0
  4 20  1  0     0  0
  4 21  1  0     0  0
  5  8  2  0     0  0
  5 11  1  0     0  0
  6  9  2  0     0  0
  6 12  1  0     0  0
  7 10  2  0     0  0
  7 13  1  0     0  0
  8 10  1  0     0  0
  9 14  1  0     0  0
 11 13  2  0     0  0
 12 15  2  0     0  0
 14 16  2  0     0  0
 15 16  1  0     0  0
 18 22  1  0     0  0
 18 23  1  0     0  0
 19 22  1  0     0  0
 20 24  1  0     0  0
 23 25  1  0     0  0
 24 25  1  0     0  0
M  END
> <standard_type>
pIC50

> <# Confs.>
25

> <canonical_smiles>
CSC1=CC2=C(C=C1)SC3=C(C=CC=C3)N2CCC4N(C)CCCC4

> <standard_relation>
=

> <Publication_ID>
nan

> <predicted_activity_value>
nan

> <actual_activity_value>
1.4436974992327127

> <Compound>
Thioridazine

> <standard_units>
uM

> hash
11666782688447714333

$$$$
52
XXILIB    08252103503D 0   0.00000     0.00000

 25 28  0     1  0            999 V2000
   -2.9949    0.8912    0.0058 S   0  0  0  0  0  2           0  0  0
    0.3195   -0.9131    5.1247 S   0  0  0  0  0  2           0  0  0
    0.0000   -0.0000    0.0000 N   0  0  1  0  0  3           0  0  0
    4.0914   -2.9087    0.0000 N   0  0  1  0  0  3           0  0  0
   -2.0067    0.3598    1.3854 C   0  0  0  0  0  4           0  0  0
   -2.0065    0.3842   -1.3828 C   0  0  0  0  0  4           0  0  0
   -0.6211   -0.3940    3.7105 C   0  0  0  0  0  4           0  0  0
   -0.6526    0.0000    1.2641 C   0  0  0  0  0  4           0  0  0
   -0.6501    0.0226   -1.2647 C   0  0  0  0  0  4           0  0  0
    0.0095   -0.3887    2.4540 C   0  0  0  0  0  4           0  0  0
   -2.6449    0.3465    2.6379 C   0  0  0  0  0  4           0  0  0
   -2.6451    0.3967   -2.6375 C   0  0  0  0  0  4           0  0  0
   -1.9602   -0.0283    3.7906 C   0  0  0  0  0  4           0  0  0
    0.0134   -0.3413   -2.4590 C   0  0  0  0  0  4           0  0  0
   -1.9577    0.0407   -3.7919 C   0  0  0  0  0  4           0  0  0
   -0.6267   -0.3311   -3.7021 C   0  0  0  0  0  4           0  0  0
   -0.6354   -2.3382    5.7151 C   0  0  0  0  0  4           0  0  0
    3.5721   -1.5180    0.0000 C   0  0  2  0  0  4           0  0  0
    1.4570   -0.0000   -0.0000 C   0  0  0  0  0  4           0  0  0
    5.5659   -2.9247   -0.0127 C   0  0  0  0  0  4           0  0  0
    3.6144   -3.7139    1.1252 C   0  0  0  0  0  4           0  0  0
    2.0408   -1.4132    0.0000 C   0  0  0  0  0  4           0  0  0
    4.0907   -0.7827   -1.2569 C   0  0  0  0  0  4           0  0  0
    6.1310   -2.2200   -1.2429 C   0  0  0  0  0  4           0  0  0
    5.6112   -0.7954   -1.3419 C   0  0  0  0  0  4           0  0  0
  1  5  1  0     0  0
  1  6  1  0     0  0
  2  7  1  0     0  0
  2 17  1  0     0  0
  3  8  1  0     0  0
  3  9  1  0     0  0
  3 19  1  0     0  0
  4 18  1  0     0  0
  4 20  1  0     0  0
  4 21  1  0     0  0
  5  8  2  0     0  0
  5 11  1  0     0  0
  6  9  2  0     0  0
  6 12  1  0     0  0
  7 10  2  0     0  0
  7 13  1  0     0  0
  8 10  1  0     0  0
  9 14  1  0     0  0
 11 13  2  0     0  0
 12 15  2  0     0  0
 14 16  2  0     0  0
 15 16  1  0     0  0
 18 22  1  0     0  0
 18 23  1  0     0  0
 19 22  1  0     0  0
 20 24  1  0     0  0
 23 25  1  0     0  0
 24 25  1  0     0  0
M  END
> <standard_type>
pIC50

> <# Confs.>
25

> <canonical_smiles>
CSC1=CC2=C(C=C1)SC3=C(C=CC=C3)N2CCC4N(C)CCCC4

> <standard_relation>
=

> <Publication_ID>
nan

> <predicted_activity_value>
nan

> <actual_activity_value>
1.4436974992327127

> <Compound>
Thioridazine

> <standard_units>
uM

> hash
11666782688447714333

$$$$
52
XXILIB    08252103503D 0   0.00000     0.00000

 25 28  0     1  0            999 V2000
   -2.8185    1.2926    0.0131 S   0  0  0  0  0  2           0  0  0
    0.0576   -1.3788    5.0214 S   0  0  0  0  0  2           0  0  0
    0.0000   -0.0000    0.0000 N   0  0  1  0  0  3           0  0  0
    2.2556    3.7492    0.8404 N   0  0  1  0  0  3           0  0  0
   -1.9584    0.5435    1.3820 C   0  0  0  0  0  4           0  0  0
   -1.9592    0.5765   -1.3746 C   0  0  0  0  0  4           0  0  0
   -0.7618   -0.6170    3.6421 C   0  0  0  0  0  4           0  0  0
   -0.6668   -0.0000    1.2515 C   0  0  0  0  0  4           0  0  0
   -0.6591    0.0458   -1.2573 C   0  0  0  0  0  4           0  0  0
   -0.1000   -0.5929    2.4026 C   0  0  0  0  0  4           0  0  0
   -2.6153    0.5414    2.6223 C   0  0  0  0  0  4           0  0  0
   -2.6145    0.6055   -2.6175 C   0  0  0  0  0  4           0  0  0
   -2.0189   -0.0270    3.7455 C   0  0  0  0  0  4           0  0  0
   -0.0639   -0.4652   -2.4305 C   0  0  0  0  0  4           0  0  0
   -1.9970    0.0999   -3.7569 C   0  0  0  0  0  4           0  0  0
   -0.7213   -0.4366   -3.6633 C   0  0  0  0  0  4           0  0  0
    0.1750   -0.0053    6.2008 C   0  0  0  0  0  4           0  0  0
    1.6655    2.5922    0.1214 C   0  0  2  0  0  4           0  0  0
    1.4570   -0.0000    0.0000 C   0  0  0  0  0  4           0  0  0
    1.8594    5.0230    0.2118 C   0  0  0  0  0  4           0  0  0
    1.9154    3.7923    2.2632 C   0  0  0  0  0  4           0  0  0
    2.0408    1.2239    0.7066 C   0  0  0  0  0  4           0  0  0
    2.1364    2.6159   -1.3508 C   0  0  0  0  0  4           0  0  0
    2.3120    5.1031   -1.2435 C   0  0  0  0  0  4           0  0  0
    1.7834    3.9248   -2.0445 C   0  0  0  0  0  4           0  0  0
  1  5  1  0     0  0
  1  6  1  0     0  0
  2  7  1  0     0  0
  2 17  1  0     0  0
  3  8  1  0     0  0
  3  9  1  0     0  0
  3 19  1  0     0  0
  4 18  1  0     0  0
  4 20  1  0     0  0
  4 21  1  0     0  0
  5  8  2  0     0  0
  5 11  1  0     0  0
  6  9  2  0     0  0
  6 12  1  0     0  0
  7 10  2  0     0  0
  7 13  1  0     0  0
  8 10  1  0     0  0
  9 14  1  0     0  0
 11 13  2  0     0  0
 12 15  2  0     0  0
 14 16  2  0     0  0
 15 16  1  0     0  0
 18 22  1  0     0  0
 18 23  1  0     0  0
 19 22  1  0     0  0
 20 24  1  0     0  0
 23 25  1  0     0  0
 24 25  1  0     0  0
M  END
> <standard_type>
pIC50

> <# Confs.>
25

> <canonical_smiles>
CSC1=CC2=C(C=C1)SC3=C(C=CC=C3)N2CCC4N(C)CCCC4

> <standard_relation>
=

> <Publication_ID>
nan

> <predicted_activity_value>
nan

> <actual_activity_value>
1.4436974992327127

> <Compound>
Thioridazine

> <standard_units>
uM

> hash
11666782688447714333

$$$$
52
XXILIB    08252103503D 0   0.00000     0.00000

 25 28  0     1  0            999 V2000
   -2.9949    0.8912    0.0058 S   0  0  0  0  0  2           0  0  0
    0.3195   -0.9131    5.1247 S   0  0  0  0  0  2           0  0  0
    0.0000   -0.0000    0.0000 N   0  0  1  0  0  3           0  0  0
    4.0914   -2.9087    0.0000 N   0  0  1  0  0  3           0  0  0
   -2.0067    0.3598    1.3854 C   0  0  0  0  0  4           0  0  0
   -2.0065    0.3842   -1.3828 C   0  0  0  0  0  4           0  0  0
   -0.6211   -0.3940    3.7105 C   0  0  0  0  0  4           0  0  0
   -0.6526    0.0000    1.2641 C   0  0  0  0  0  4           0  0  0
   -0.6501    0.0226   -1.2647 C   0  0  0  0  0  4           0  0  0
    0.0095   -0.3887    2.4540 C   0  0  0  0  0  4           0  0  0
   -2.6449    0.3465    2.6379 C   0  0  0  0  0  4           0  0  0
   -2.6451    0.3967   -2.6375 C   0  0  0  0  0  4           0  0  0
   -1.9602   -0.0283    3.7906 C   0  0  0  0  0  4           0  0  0
    0.0134   -0.3413   -2.4590 C   0  0  0  0  0  4           0  0  0
   -1.9577    0.0407   -3.7919 C   0  0  0  0  0  4           0  0  0
   -0.6267   -0.3311   -3.7021 C   0  0  0  0  0  4           0  0  0
    0.2664    0.5616    6.1799 C   0  0  0  0  0  4           0  0  0
    3.5721   -1.5180    0.0000 C   0  0  2  0  0  4           0  0  0
    1.4570   -0.0000   -0.0000 C   0  0  0  0  0  4           0  0  0
    5.5659   -2.9247   -0.0127 C   0  0  0  0  0  4           0  0  0
    3.6144   -3.7139    1.1252 C   0  0  0  0  0  4           0  0  0
    2.0408   -1.4132    0.0000 C   0  0  0  0  0  4           0  0  0
    4.0907   -0.7827   -1.2569 C   0  0  0  0  0  4           0  0  0
    6.1310   -2.2200   -1.2429 C   0  0  0  0  0  4           0  0  0
    5.6112   -0.7954   -1.3419 C   0  0  0  0  0  4           0  0  0
  1  5  1  0     0  0
  1  6  1  0     0  0
  2  7  1  0     0  0
  2 17  1  0     0  0
  3  8  1  0     0  0
  3  9  1  0     0  0
  3 19  1  0     0  0
  4 18  1  0     0  0
  4 20  1  0     0  0
  4 21  1  0     0  0
  5  8  2  0     0  0
  5 11  1  0     0  0
  6  9  2  0     0  0
  6 12  1  0     0  0
  7 10  2  0     0  0
  7 13  1  0     0  0
  8 10  1  0     0  0
  9 14  1  0     0  0
 11 13  2  0     0  0
 12 15  2  0     0  0
 14 16  2  0     0  0
 15 16  1  0     0  0
 18 22  1  0     0  0
 18 23  1  0     0  0
 19 22  1  0     0  0
 20 24  1  0     0  0
 23 25  1  0     0  0
 24 25  1  0     0  0
M  END
> <standard_type>
pIC50

> <# Confs.>
25

> <canonical_smiles>
CSC1=CC2=C(C=C1)SC3=C(C=CC=C3)N2CCC4N(C)CCCC4

> <standard_relation>
=

> <Publication_ID>
nan

> <predicted_activity_value>
nan

> <actual_activity_value>
1.4436974992327127

> <Compound>
Thioridazine

> <standard_units>
uM

> hash
11666782688447714333

$$$$
52
XXILIB    08252103503D 0   0.00000     0.00000

 25 28  0     1  0            999 V2000
   -2.8185    1.2926    0.0131 S   0  0  0  0  0  2           0  0  0
    0.0576   -1.3788    5.0214 S   0  0  0  0  0  2           0  0  0
    0.0000   -0.0000    0.0000 N   0  0  1  0  0  3           0  0  0
    4.2280    1.3521   -0.5723 N   0  0  1  0  0  3           0  0  0
   -1.9584    0.5435    1.3820 C   0  0  0  0  0  4           0  0  0
   -1.9592    0.5765   -1.3746 C   0  0  0  0  0  4           0  0  0
   -0.7618   -0.6170    3.6421 C   0  0  0  0  0  4           0  0  0
   -0.6668   -0.0000    1.2515 C   0  0  0  0  0  4           0  0  0
   -0.6591    0.0458   -1.2573 C   0  0  0  0  0  4           0  0  0
   -0.1000   -0.5929    2.4026 C   0  0  0  0  0  4           0  0  0
   -2.6153    0.5414    2.6223 C   0  0  0  0  0  4           0  0  0
   -2.6145    0.6055   -2.6175 C   0  0  0  0  0  4           0  0  0
   -2.0189   -0.0270    3.7455 C   0  0  0  0  0  4           0  0  0
   -0.0639   -0.4652   -2.4305 C   0  0  0  0  0  4           0  0  0
   -1.9970    0.0999   -3.7569 C   0  0  0  0  0  4           0  0  0
   -0.7213   -0.4366   -3.6633 C   0  0  0  0  0  4           0  0  0
   -1.0993   -2.7029    5.4680 C   0  0  0  0  0  4           0  0  0
    3.5721    1.3146    0.7590 C   0  0  2  0  0  4           0  0  0
    1.4570   -0.0000   -0.0000 C   0  0  0  0  0  4           0  0  0
    5.6953    1.4119   -0.4426 C   0  0  0  0  0  4           0  0  0
    3.7791    2.4612   -1.4152 C   0  0  0  0  0  4           0  0  0
    2.0408    1.2239    0.7066 C   0  0  0  0  0  4           0  0  0
    4.0850    0.0896    1.5507 C   0  0  0  0  0  4           0  0  0
    6.2472    0.2072    0.3148 C   0  0  0  0  0  4           0  0  0
    5.6019    0.0865    1.6849 C   0  0  0  0  0  4           0  0  0
  1  5  1  0     0  0
  1  6  1  0     0  0
  2  7  1  0     0  0
  2 17  1  0     0  0
  3  8  1  0     0  0
  3  9  1  0     0  0
  3 19  1  0     0  0
  4 18  1  0     0  0
  4 20  1  0     0  0
  4 21  1  0     0  0
  5  8  2  0     0  0
  5 11  1  0     0  0
  6  9  2  0     0  0
  6 12  1  0     0  0
  7 10  2  0     0  0
  7 13  1  0     0  0
  8 10  1  0     0  0
  9 14  1  0     0  0
 11 13  2  0     0  0
 12 15  2  0     0  0
 14 16  2  0     0  0
 15 16  1  0     0  0
 18 22  1  0     0  0
 18 23  1  0     0  0
 19 22  1  0     0  0
 20 24  1  0     0  0
 23 25  1  0     0  0
 24 25  1  0     0  0
M  END
> <standard_type>
pIC50

> <# Confs.>
25

> <canonical_smiles>
CSC1=CC2=C(C=C1)SC3=C(C=CC=C3)N2CCC4N(C)CCCC4

> <standard_relation>
=

> <Publication_ID>
nan

> <predicted_activity_value>
nan

> <actual_activity_value>
1.4436974992327127

> <Compound>
Thioridazine

> <standard_units>
uM

> hash
11666782688447714333

$$$$
52
XXILIB    08252103503D 0   0.00000     0.00000

 25 28  0     1  0            999 V2000
   -2.9949    0.8912    0.0058 S   0  0  0  0  0  2           0  0  0
    0.3195   -0.9131    5.1247 S   0  0  0  0  0  2           0  0  0
    0.0000   -0.0000    0.0000 N   0  0  1  0  0  3           0  0  0
    4.1464   -0.8657   -1.1952 N   0  0  1  0  0  3           0  0  0
   -2.0067    0.3598    1.3854 C   0  0  0  0  0  4           0  0  0
   -2.0065    0.3842   -1.3828 C   0  0  0  0  0  4           0  0  0
   -0.6211   -0.3940    3.7105 C   0  0  0  0  0  4           0  0  0
   -0.6526    0.0000    1.2641 C   0  0  0  0  0  4           0  0  0
   -0.6501    0.0226   -1.2647 C   0  0  0  0  0  4           0  0  0
    0.0095   -0.3887    2.4540 C   0  0  0  0  0  4           0  0  0
   -2.6449    0.3465    2.6379 C   0  0  0  0  0  4           0  0  0
   -2.6451    0.3967   -2.6375 C   0  0  0  0  0  4           0  0  0
   -1.9602   -0.0283    3.7906 C   0  0  0  0  0  4           0  0  0
    0.0134   -0.3413   -2.4590 C   0  0  0  0  0  4           0  0  0
   -1.9577    0.0407   -3.7919 C   0  0  0  0  0  4           0  0  0
   -0.6267   -0.3311   -3.7021 C   0  0  0  0  0  4           0  0  0
    0.2664    0.5616    6.1799 C   0  0  0  0  0  4           0  0  0
    3.5721   -1.5180    0.0000 C   0  0  2  0  0  4           0  0  0
    1.4570    0.0000    0.0000 C   0  0  0  0  0  4           0  0  0
    3.9758   -1.6620   -2.4186 C   0  0  0  0  0  4           0  0  0
    5.5426   -0.4796   -0.9915 C   0  0  0  0  0  4           0  0  0
    2.0408   -1.4132    0.0000 C   0  0  0  0  0  4           0  0  0
    4.0277   -2.9818    0.1660 C   0  0  0  0  0  4           0  0  0
    4.4654   -3.1056   -2.3006 C   0  0  0  0  0  4           0  0  0
    3.8387   -3.8074   -1.1028 C   0  0  0  0  0  4           0  0  0
  1  5  1  0     0  0
  1  6  1  0     0  0
  2  7  1  0     0  0
  2 17  1  0     0  0
  3  8  1  0     0  0
  3  9  1  0     0  0
  3 19  1  0     0  0
  4 18  1  0     0  0
  4 20  1  0     0  0
  4 21  1  0     0  0
  5  8  2  0     0  0
  5 11  1  0     0  0
  6  9  2  0     0  0
  6 12  1  0     0  0
  7 10  2  0     0  0
  7 13  1  0     0  0
  8 10  1  0     0  0
  9 14  1  0     0  0
 11 13  2  0     0  0
 12 15  2  0     0  0
 14 16  2  0     0  0
 15 16  1  0     0  0
 18 22  1  0     0  0
 18 23  1  0     0  0
 19 22  1  0     0  0
 20 24  1  0     0  0
 23 25  1  0     0  0
 24 25  1  0     0  0
M  END
> <standard_type>
pIC50

> <# Confs.>
25

> <canonical_smiles>
CSC1=CC2=C(C=C1)SC3=C(C=CC=C3)N2CCC4N(C)CCCC4

> <standard_relation>
=

> <Publication_ID>
nan

> <predicted_activity_value>
nan

> <actual_activity_value>
1.4436974992327127

> <Compound>
Thioridazine

> <standard_units>
uM

> hash
11666782688447714333

$$$$
52
XXILIB    08252103503D 0   0.00000     0.00000

 25 28  0     1  0            999 V2000
   -2.9949    0.8912    0.0058 S   0  0  0  0  0  2           0  0  0
    0.3195   -0.9131    5.1247 S   0  0  0  0  0  2           0  0  0
    0.0000   -0.0000    0.0000 N   0  0  1  0  0  3           0  0  0
    4.1464   -0.8657   -1.1952 N   0  0  1  0  0  3           0  0  0
   -2.0067    0.3598    1.3854 C   0  0  0  0  0  4           0  0  0
   -2.0065    0.3842   -1.3828 C   0  0  0  0  0  4           0  0  0
   -0.6211   -0.3940    3.7105 C   0  0  0  0  0  4           0  0  0
   -0.6526    0.0000    1.2641 C   0  0  0  0  0  4           0  0  0
   -0.6501    0.0226   -1.2647 C   0  0  0  0  0  4           0  0  0
    0.0095   -0.3887    2.4540 C   0  0  0  0  0  4           0  0  0
   -2.6449    0.3465    2.6379 C   0  0  0  0  0  4           0  0  0
   -2.6451    0.3967   -2.6375 C   0  0  0  0  0  4           0  0  0
   -1.9602   -0.0283    3.7906 C   0  0  0  0  0  4           0  0  0
    0.0134   -0.3413   -2.4590 C   0  0  0  0  0  4           0  0  0
   -1.9577    0.0407   -3.7919 C   0  0  0  0  0  4           0  0  0
   -0.6267   -0.3311   -3.7021 C   0  0  0  0  0  4           0  0  0
   -0.6354   -2.3382    5.7151 C   0  0  0  0  0  4           0  0  0
    3.5721   -1.5180    0.0000 C   0  0  2  0  0  4           0  0  0
    1.4570    0.0000    0.0000 C   0  0  0  0  0  4           0  0  0
    3.9758   -1.6620   -2.4186 C   0  0  0  0  0  4           0  0  0
    5.5426   -0.4796   -0.9915 C   0  0  0  0  0  4           0  0  0
    2.0408   -1.4132    0.0000 C   0  0  0  0  0  4           0  0  0
    4.0277   -2.9818    0.1660 C   0  0  0  0  0  4           0  0  0
    4.4654   -3.1056   -2.3006 C   0  0  0  0  0  4           0  0  0
    3.8387   -3.8074   -1.1028 C   0  0  0  0  0  4           0  0  0
  1  5  1  0     0  0
  1  6  1  0     0  0
  2  7  1  0     0  0
  2 17  1  0     0  0
  3  8  1  0     0  0
  3  9  1  0     0  0
  3 19  1  0     0  0
  4 18  1  0     0  0
  4 20  1  0     0  0
  4 21  1  0     0  0
  5  8  2  0     0  0
  5 11  1  0     0  0
  6  9  2  0     0  0
  6 12  1  0     0  0
  7 10  2  0     0  0
  7 13  1  0     0  0
  8 10  1  0     0  0
  9 14  1  0     0  0
 11 13  2  0     0  0
 12 15  2  0     0  0
 14 16  2  0     0  0
 15 16  1  0     0  0
 18 22  1  0     0  0
 18 23  1  0     0  0
 19 22  1  0     0  0
 20 24  1  0     0  0
 23 25  1  0     0  0
 24 25  1  0     0  0
M  END
> <standard_type>
pIC50

> <# Confs.>
25

> <canonical_smiles>
CSC1=CC2=C(C=C1)SC3=C(C=CC=C3)N2CCC4N(C)CCCC4

> <standard_relation>
=

> <Publication_ID>
nan

> <predicted_activity_value>
nan

> <actual_activity_value>
1.4436974992327127

> <Compound>
Thioridazine

> <standard_units>
uM

> hash
11666782688447714333

$$$$
52
XXILIB    08252103503D 0   0.00000     0.00000

 25 28  0     1  0            999 V2000
   -2.8295   -1.2558    0.0012 S   0  0  0  0  0  2           0  0  0
   -0.0171    1.2954    5.1073 S   0  0  0  0  0  2           0  0  0
    0.0000    0.0000    0.0000 N   0  0  1  0  0  3           0  0  0
    4.2299   -1.3522   -0.5713 N   0  0  1  0  0  3           0  0  0
   -1.9640   -0.5273    1.3790 C   0  0  0  0  0  4           0  0  0
   -1.9725   -0.5158   -1.3762 C   0  0  0  0  0  4           0  0  0
   -0.7451    0.5956    3.6463 C   0  0  0  0  0  4           0  0  0
   -0.6648    0.0000    1.2531 C   0  0  0  0  0  4           0  0  0
   -0.6673    0.0013   -1.2524 C   0  0  0  0  0  4           0  0  0
   -0.0853    0.5748    2.4074 C   0  0  0  0  0  4           0  0  0
   -2.6197   -0.5259    2.6193 C   0  0  0  0  0  4           0  0  0
   -2.6347   -0.5057   -2.6153 C   0  0  0  0  0  4           0  0  0
   -2.0118    0.0231    3.7456 C   0  0  0  0  0  4           0  0  0
   -0.0775    0.5492   -2.4114 C   0  0  0  0  0  4           0  0  0
   -2.0217    0.0333   -3.7420 C   0  0  0  0  0  4           0  0  0
   -0.7440    0.5644   -3.6393 C   0  0  0  0  0  4           0  0  0
    0.2549    3.0186    4.6095 C   0  0  0  0  0  4           0  0  0
    3.5721   -1.3146    0.7590 C   0  0  2  0  0  4           0  0  0
    1.4570    0.0000    0.0000 C   0  0  0  0  0  4           0  0  0
    5.6964   -1.4265   -0.4364 C   0  0  0  0  0  4           0  0  0
    3.7719   -2.4514   -1.4222 C   0  0  0  0  0  4           0  0  0
    2.0408   -1.2239    0.7066 C   0  0  0  0  0  4           0  0  0
    4.0863   -0.0868    1.5448 C   0  0  0  0  0  4           0  0  0
    6.2583   -0.2283    0.3237 C   0  0  0  0  0  4           0  0  0
    5.6024   -0.0916    1.6878 C   0  0  0  0  0  4           0  0  0
  1  5  1  0     0  0
  1  6  1  0     0  0
  2  7  1  0     0  0
  2 17  1  0     0  0
  3  8  1  0     0  0
  3  9  1  0     0  0
  3 19  1  0     0  0
  4 18  1  0     0  0
  4 20  1  0     0  0
  4 21  1  0     0  0
  5  8  2  0     0  0
  5 11  1  0     0  0
  6  9  2  0     0  0
  6 12  1  0     0  0
  7 10  2  0     0  0
  7 13  1  0     0  0
  8 10  1  0     0  0
  9 14  1  0     0  0
 11 13  2  0     0  0
 12 15  2  0     0  0
 14 16  2  0     0  0
 15 16  1  0     0  0
 18 22  1  0     0  0
 18 23  1  0     0  0
 19 22  1  0     0  0
 20 24  1  0     0  0
 23 25  1  0     0  0
 24 25  1  0     0  0
M  END
> <standard_type>
pIC50

> <# Confs.>
25

> <canonical_smiles>
CSC1=CC2=C(C=C1)SC3=C(C=CC=C3)N2CCC4N(C)CCCC4

> <standard_relation>
=

> <Publication_ID>
nan

> <predicted_activity_value>
nan

> <actual_activity_value>
1.4436974992327127

> <Compound>
Thioridazine

> <standard_units>
uM

> hash
11666782688447714333

$$$$
