_Vesnarinone
XXILIB    06242209073D 0   0.00000     0.00000

 54 57  0     1  0            999 V2000
   -9.4159    7.0873   -3.2151 O   0  0  0  0  0  2           0  0  0
  -11.1701    7.7366   -1.4017 O   0  0  0  0  0  2           0  0  0
   -5.0283    8.4433    0.0028 O   0  0  0  0  0  2           0  0  0
    0.2962   -2.3516   -1.9013 O   0  0  0  0  0  2           0  0  0
   -3.9311    3.7430    0.2206 N   0  0  0  0  0  3           0  0  0
   -1.3188   -1.1363   -0.8095 N   0  0  0  0  0  3           0  0  0
   -5.2382    6.2133    0.5841 N   0  0  0  0  0  3           0  0  0
   -8.9191    7.3292   -1.9624 C   0  0  0  0  0  4           0  0  0
   -9.8674    7.6783   -0.9841 C   0  0  0  0  0  4           0  0  0
   -3.2837    2.5434   -0.0337 C   0  0  0  0  0  4           0  0  0
   -1.9706    0.0844   -0.5633 C   0  0  0  0  0  4           0  0  0
   -1.4932    1.2638   -1.1355 C   0  0  0  0  0  4           0  0  0
   -7.1432    7.5075   -0.3069 C   0  0  0  0  0  4           0  0  0
   -7.5610    7.2389   -1.6182 C   0  0  0  0  0  4           0  0  0
   -9.4443    7.9477    0.3214 C   0  0  0  0  0  4           0  0  0
   -2.1441    2.4768   -0.8612 C   0  0  0  0  0  4           0  0  0
   -3.7266    1.3301    0.5285 C   0  0  0  0  0  4           0  0  0
   -3.0788    0.1161    0.2768 C   0  0  0  0  0  4           0  0  0
   -8.0912    7.8632    0.6574 C   0  0  0  0  0  4           0  0  0
   -5.7146    7.4259    0.1021 C   0  0  0  0  0  4           0  0  0
   -0.3143   -1.2944   -1.7451 C   0  0  0  0  0  4           0  0  0
   -9.4443    8.2889   -3.9871 C   0  0  0  0  0  4           0  0  0
  -11.8067    6.4672   -1.2469 C   0  0  0  0  0  4           0  0  0
   -3.1433    4.9861    0.2197 C   0  0  0  0  0  4           0  0  0
   -5.3630    3.8574   -0.0989 C   0  0  0  0  0  4           0  0  0
   -3.8511    6.0834    1.0112 C   0  0  0  0  0  4           0  0  0
   -6.0143    4.9795    0.7070 C   0  0  0  0  0  4           0  0  0
   -0.2289    1.2270   -1.9464 C   0  0  0  0  0  4           0  0  0
   -0.0826   -0.1083   -2.6609 C   0  0  0  0  0  4           0  0  0
   -1.6063   -1.9597   -0.2615 H   0  0  0  0  0  1           0  0  0
   -6.8411    6.9636   -2.3603 H   0  0  0  0  0  1           0  0  0
  -10.1614    8.2201    1.0673 H   0  0  0  0  0  1           0  0  0
   -1.7638    3.3787   -1.2935 H   0  0  0  0  0  1           0  0  0
   -4.5848    1.3373    1.1675 H   0  0  0  0  0  1           0  0  0
   -3.4347   -0.7858    0.7294 H   0  0  0  0  0  1           0  0  0
   -7.7781    8.0720    1.6590 H   0  0  0  0  0  1           0  0  0
   -9.8351    8.0783   -4.9607 H   0  0  0  0  0  1           0  0  0
   -8.4517    8.6781   -4.0778 H   0  0  0  0  0  1           0  0  0
  -10.0673    9.0105   -3.5012 H   0  0  0  0  0  1           0  0  0
  -12.8218    6.5345   -1.5784 H   0  0  0  0  0  1           0  0  0
  -11.7862    6.1813   -0.2161 H   0  0  0  0  0  1           0  0  0
  -11.2888    5.7350   -1.8305 H   0  0  0  0  0  1           0  0  0
   -3.0087    5.3143   -0.7898 H   0  0  0  0  0  1           0  0  0
   -2.1883    4.7955    0.6631 H   0  0  0  0  0  1           0  0  0
   -5.8484    2.9325    0.1330 H   0  0  0  0  0  1           0  0  0
   -5.4733    4.0663   -1.1425 H   0  0  0  0  0  1           0  0  0
   -3.8257    5.8376    2.0523 H   0  0  0  0  0  1           0  0  0
   -3.3460    7.0130    0.8517 H   0  0  0  0  0  1           0  0  0
   -7.0049    5.1482    0.3393 H   0  0  0  0  0  1           0  0  0
   -6.0601    4.6930    1.7369 H   0  0  0  0  0  1           0  0  0
    0.6088    1.3704   -1.2964 H   0  0  0  0  0  1           0  0  0
   -0.2553    2.0122   -2.6728 H   0  0  0  0  0  1           0  0  0
   -0.7943   -0.1486   -3.4589 H   0  0  0  0  0  1           0  0  0
    0.9072   -0.1745   -3.0621 H   0  0  0  0  0  1           0  0  0
  1  8  1  0     0  0
  1 22  1  0     0  0
  2  9  1  0     0  0
  2 23  1  0     0  0
  3 20  2  0     0  0
  4 21  2  0     0  0
  5 10  1  0     0  0
  5 24  1  0     0  0
  5 25  1  0     0  0
  6 11  1  0     0  0
  6 21  1  0     0  0
  6 30  1  0     0  0
  7 20  1  0     0  0
  7 26  1  0     0  0
  7 27  1  0     0  0
  8  9  1  0     0  0
  8 14  2  0     0  0
  9 15  2  0     0  0
 10 16  1  0     0  0
 10 17  2  0     0  0
 11 12  1  0     0  0
 11 18  2  0     0  0
 12 16  2  0     0  0
 12 28  1  0     0  0
 13 14  1  0     0  0
 13 19  2  0     0  0
 13 20  1  0     0  0
 14 31  1  0     0  0
 15 19  1  0     0  0
 15 32  1  0     0  0
 16 33  1  0     0  0
 17 18  1  0     0  0
 17 34  1  0     0  0
 18 35  1  0     0  0
 19 36  1  0     0  0
 21 29  1  0     0  0
 22 37  1  0     0  0
 22 38  1  0     0  0
 22 39  1  0     0  0
 23 40  1  0     0  0
 23 41  1  0     0  0
 23 42  1  0     0  0
 24 26  1  0     0  0
 24 43  1  0     0  0
 24 44  1  0     0  0
 25 27  1  0     0  0
 25 45  1  0     0  0
 25 46  1  0     0  0
 26 47  1  0     0  0
 26 48  1  0     0  0
 27 49  1  0     0  0
 27 50  1  0     0  0
 28 29  1  0     0  0
 28 51  1  0     0  0
 28 52  1  0     0  0
 29 53  1  0     0  0
 29 54  1  0     0  0
M  END
> <Smiles>
COc1ccc(C(=O)N2CCN(c3ccc4c(c3)CCC(=O)N4)CC2)cc1OC

> <Name>
Vesnarinone

> <# Confs.>
25

> <Chembl_id>
CHEMBL17423

> <prediction>
5.933530034717537

$$$$
