_Amiodarone
XXILIB    06242209073D 0   0.00000     0.00000

 60 62  0     1  0            999 V2000
    4.0398   -4.4366   -3.3934 I   0  0  0  0  0  1           0  0  0
    4.4343    0.0572    0.7667 I   0  0  0  0  0  1           0  0  0
   -2.9165   -1.6464    1.0690 O   0  0  0  0  0  2           0  0  0
    5.3200   -2.3781   -1.2121 O   0  0  0  0  0  2           0  0  0
   -0.7780   -1.4073   -2.5671 O   0  0  0  0  0  2           0  0  0
    7.8815   -4.3726    0.5965 N   0  0  0  0  0  3           0  0  0
    3.1886   -2.9969   -2.1265 C   0  0  0  0  0  4           0  0  0
    3.3428   -1.2265   -0.4852 C   0  0  0  0  0  4           0  0  0
   -2.0813   -2.5488    1.6411 C   0  0  0  0  0  4           0  0  0
   -2.3525   -1.2576   -0.1063 C   0  0  0  0  0  4           0  0  0
    3.9640   -2.2178   -1.2571 C   0  0  0  0  0  4           0  0  0
   -0.9643   -2.7542    0.8375 C   0  0  0  0  0  4           0  0  0
   -1.1393   -1.9047   -0.3102 C   0  0  0  0  0  4           0  0  0
    1.1774   -1.8526   -1.3863 C   0  0  0  0  0  4           0  0  0
    1.8010   -2.8212   -2.1848 C   0  0  0  0  0  4           0  0  0
    1.9543   -1.0497   -0.5411 C   0  0  0  0  0  4           0  0  0
   -2.3074   -3.1841    2.8622 C   0  0  0  0  0  4           0  0  0
    0.0024   -3.6744    1.2942 C   0  0  0  0  0  4           0  0  0
   -1.3328   -4.0881    3.2872 C   0  0  0  0  0  4           0  0  0
   -0.1964   -4.3319    2.5171 C   0  0  0  0  0  4           0  0  0
   -0.2943   -1.7027   -1.4766 C   0  0  0  0  0  4           0  0  0
    5.7946   -3.3419   -0.2716 C   0  0  0  0  0  4           0  0  0
    7.3168   -3.4004   -0.3448 C   0  0  0  0  0  4           0  0  0
    9.3421   -4.4620    0.5601 C   0  0  0  0  0  4           0  0  0
    7.3673   -4.2194    1.9616 C   0  0  0  0  0  4           0  0  0
   -3.1367   -0.2654   -0.8808 C   0  0  0  0  0  4           0  0  0
   -2.7801    1.1733   -0.5209 C   0  0  0  0  0  4           0  0  0
   -3.5860    2.1963   -1.3169 C   0  0  0  0  0  4           0  0  0
    9.8555   -4.8749   -0.8154 C   0  0  0  0  0  4           0  0  0
    7.6759   -2.8414    2.5375 C   0  0  0  0  0  4           0  0  0
   -3.2113    3.6210   -0.9390 C   0  0  0  0  0  4           0  0  0
    1.2141   -3.4287   -2.8416 H   0  0  0  0  0  1           0  0  0
    1.4864   -0.3003    0.0625 H   0  0  0  0  0  1           0  0  0
   -3.1840   -2.9881    3.4437 H   0  0  0  0  0  1           0  0  0
    0.8795   -3.8690    0.7130 H   0  0  0  0  0  1           0  0  0
   -1.4595   -4.6015    4.2175 H   0  0  0  0  0  1           0  0  0
    0.5352   -5.0313    2.8642 H   0  0  0  0  0  1           0  0  0
    5.3871   -4.3030   -0.5064 H   0  0  0  0  0  1           0  0  0
    5.4937   -3.0583    0.7153 H   0  0  0  0  0  1           0  0  0
    7.6033   -3.6765   -1.3381 H   0  0  0  0  0  1           0  0  0
    7.7099   -2.4318   -0.1164 H   0  0  0  0  0  1           0  0  0
    9.6619   -5.1863    1.2798 H   0  0  0  0  0  1           0  0  0
    9.7530   -3.5059    0.8094 H   0  0  0  0  0  1           0  0  0
    7.8171   -4.9631    2.5856 H   0  0  0  0  0  1           0  0  0
    6.3065   -4.3587    1.9487 H   0  0  0  0  0  1           0  0  0
   -4.1767   -0.4206   -0.6829 H   0  0  0  0  0  1           0  0  0
   -2.9456   -0.4155   -1.9229 H   0  0  0  0  0  1           0  0  0
   -1.7400    1.3280   -0.7186 H   0  0  0  0  0  1           0  0  0
   -2.9712    1.3229    0.5212 H   0  0  0  0  0  1           0  0  0
   -4.6271    2.0473   -1.1202 H   0  0  0  0  0  1           0  0  0
   -3.3959    2.0524   -2.3600 H   0  0  0  0  0  1           0  0  0
   10.9241   -4.9274   -0.7962 H   0  0  0  0  0  1           0  0  0
    9.5469   -4.1533   -1.5427 H   0  0  0  0  0  1           0  0  0
    9.4558   -5.8336   -1.0722 H   0  0  0  0  0  1           0  0  0
    7.2841   -2.7740    3.5308 H   0  0  0  0  0  1           0  0  0
    7.2248   -2.0894    1.9243 H   0  0  0  0  0  1           0  0  0
    8.7354   -2.6939    2.5612 H   0  0  0  0  0  1           0  0  0
   -3.7947    4.3081   -1.5155 H   0  0  0  0  0  1           0  0  0
   -2.1721    3.7811   -1.1377 H   0  0  0  0  0  1           0  0  0
   -3.4033    3.7760    0.1022 H   0  0  0  0  0  1           0  0  0
  1  7  1  0     0  0
  2  8  1  0     0  0
  3  9  1  0     0  0
  3 10  1  0     0  0
  4 11  1  0     0  0
  4 22  1  0     0  0
  5 21  2  0     0  0
  6 23  1  0     0  0
  6 24  1  0     0  0
  6 25  1  0     0  0
  7 11  2  0     0  0
  7 15  1  0     0  0
  8 11  1  0     0  0
  8 16  2  0     0  0
  9 12  1  0     0  0
  9 17  2  0     0  0
 10 13  2  0     0  0
 10 26  1  0     0  0
 12 13  1  0     0  0
 12 18  2  0     0  0
 13 21  1  0     0  0
 14 15  2  0     0  0
 14 16  1  0     0  0
 14 21  1  0     0  0
 15 32  1  0     0  0
 16 33  1  0     0  0
 17 19  1  0     0  0
 17 34  1  0     0  0
 18 20  1  0     0  0
 18 35  1  0     0  0
 19 20  2  0     0  0
 19 36  1  0     0  0
 20 37  1  0     0  0
 22 23  1  0     0  0
 22 38  1  0     0  0
 22 39  1  0     0  0
 23 40  1  0     0  0
 23 41  1  0     0  0
 24 29  1  0     0  0
 24 42  1  0     0  0
 24 43  1  0     0  0
 25 30  1  0     0  0
 25 44  1  0     0  0
 25 45  1  0     0  0
 26 27  1  0     0  0
 26 46  1  0     0  0
 26 47  1  0     0  0
 27 28  1  0     0  0
 27 48  1  0     0  0
 27 49  1  0     0  0
 28 31  1  0     0  0
 28 50  1  0     0  0
 28 51  1  0     0  0
 29 52  1  0     0  0
 29 53  1  0     0  0
 29 54  1  0     0  0
 30 55  1  0     0  0
 30 56  1  0     0  0
 30 57  1  0     0  0
 31 58  1  0     0  0
 31 59  1  0     0  0
 31 60  1  0     0  0
M  END
> <Smiles>
CCCCc1oc2ccccc2c1C(=O)c1cc(I)c(OCCN(CC)CC)c(I)c1

> <Name>
Amiodarone

> <# Confs.>
25

> <Chembl_id>
CHEMBL633

> <prediction>
5.612370913375946

$$$$
