_MK-499
XXILIB    06242209073D 0   0.00000     0.00000

 62 66  0     1  0            999 V2000
   -2.1127   -2.4322    0.0245 S   0  0  0  0  0  6           0  0  0
   -2.6307   -3.6725   -0.5185 O   0  0  0  0  0  2           0  0  0
   -0.7236   -2.3104    0.4247 O   0  0  0  0  0  2           0  0  0
   -1.5362    4.1099    0.6806 O   0  0  0  0  0  2           0  0  0
    1.1935    1.7048    1.7581 O   0  0  0  0  0  2           0  0  0
   -2.5389   -1.1309   -1.0270 N   0  0  0  0  0  3           0  0  0
   -8.1112    9.7722    8.3323 N   0  0  0  0  0  3           0  0  0
   -1.2232    6.3385    3.4253 N   0  0  0  0  0  3           0  0  0
   -1.6933    2.8085    0.2852 C   0  0  0  0  0  4           0  0  0
   -2.2320    0.1853   -0.5329 C   0  0  0  0  0  4           0  0  0
   -0.6454    1.8856    0.1957 C   0  0  0  0  0  4           0  0  0
   -4.1868    7.9145    6.1773 C   0  0  0  0  0  4           0  0  0
   -4.5798    7.6400    4.8561 C   0  0  0  0  0  4           0  0  0
   -6.4227    8.7436    6.6653 C   0  0  0  0  0  4           0  0  0
   -2.9910    2.4356   -0.0715 C   0  0  0  0  0  4           0  0  0
   -0.9240    0.5738   -0.2217 C   0  0  0  0  0  4           0  0  0
   -3.2583    1.1318   -0.4878 C   0  0  0  0  0  4           0  0  0
   -5.1121    8.4783    7.0711 C   0  0  0  0  0  4           0  0  0
   -5.9017    7.9014    4.4635 C   0  0  0  0  0  4           0  0  0
   -6.8178    8.4523    5.3605 C   0  0  0  0  0  4           0  0  0
   -3.1044   -1.9938    1.4302 C   0  0  0  0  0  4           0  0  0
    0.7672    2.2819    0.5268 C   0  0  0  0  0  4           0  0  0
   -0.2960    4.4517    1.3313 C   0  0  0  0  0  4           0  0  0
   -7.3535    9.3106    7.5840 C   0  0  0  0  0  4           0  0  0
   -2.1480    7.1128    4.2682 C   0  0  0  0  0  4           0  0  0
   -1.2401    6.7331    2.0100 C   0  0  0  0  0  4           0  0  0
   -1.4531    4.8948    3.5664 C   0  0  0  0  0  4           0  0  0
   -3.6349    7.0084    3.8603 C   0  0  0  0  0  4           0  0  0
   -2.7743    7.6754    6.6449 C   0  0  0  0  0  4           0  0  0
    0.8988    3.7997    0.6063 C   0  0  0  0  0  4           0  0  0
   -0.1571    5.9862    1.2220 C   0  0  0  0  0  4           0  0  0
   -0.3810    4.0851    2.8280 C   0  0  0  0  0  4           0  0  0
   -1.9913    6.7176    5.7467 C   0  0  0  0  0  4           0  0  0
    2.0867    1.9719    1.9406 H   0  0  0  0  0  1           0  0  0
   -2.9819   -1.2858   -1.9438 H   0  0  0  0  0  1           0  0  0
   -3.7834    3.1532   -0.0252 H   0  0  0  0  0  1           0  0  0
   -0.1276   -0.1362   -0.3026 H   0  0  0  0  0  1           0  0  0
   -4.2519    0.8558   -0.7735 H   0  0  0  0  0  1           0  0  0
   -4.8107    8.7069    8.0720 H   0  0  0  0  0  1           0  0  0
   -6.2107    7.6756    3.4643 H   0  0  0  0  0  1           0  0  0
   -7.8216    8.6507    5.0475 H   0  0  0  0  0  1           0  0  0
   -2.7421   -1.0791    1.8509 H   0  0  0  0  0  1           0  0  0
   -3.0472   -2.7710    2.1634 H   0  0  0  0  0  1           0  0  0
   -4.1216   -1.8670    1.1234 H   0  0  0  0  0  1           0  0  0
    1.4060    1.9248   -0.2539 H   0  0  0  0  0  1           0  0  0
   -1.8680    8.1410    4.1719 H   0  0  0  0  0  1           0  0  0
   -1.0631    7.7859    1.9375 H   0  0  0  0  0  1           0  0  0
   -2.1984    6.5030    1.5933 H   0  0  0  0  0  1           0  0  0
   -2.4133    4.6534    3.1605 H   0  0  0  0  0  1           0  0  0
   -1.4301    4.6381    4.6048 H   0  0  0  0  0  1           0  0  0
   -3.7621    7.4963    2.9166 H   0  0  0  0  0  1           0  0  0
   -3.8875    5.9732    3.7636 H   0  0  0  0  0  1           0  0  0
   -2.8089    7.2632    7.6317 H   0  0  0  0  0  1           0  0  0
   -2.2614    8.6142    6.6683 H   0  0  0  0  0  1           0  0  0
    0.9553    4.1931   -0.3871 H   0  0  0  0  0  1           0  0  0
    1.7965    4.0403    1.1367 H   0  0  0  0  0  1           0  0  0
   -0.2296    6.2644    0.1913 H   0  0  0  0  0  1           0  0  0
    0.8017    6.2716    1.6018 H   0  0  0  0  0  1           0  0  0
    0.5683    4.2758    3.2832 H   0  0  0  0  0  1           0  0  0
   -0.6155    3.0447    2.9144 H   0  0  0  0  0  1           0  0  0
   -0.9554    6.7537    6.0126 H   0  0  0  0  0  1           0  0  0
   -2.3609    5.7232    5.8861 H   0  0  0  0  0  1           0  0  0
  1  2  2  0     0  0
  1  3  2  0     0  0
  1  6  1  0     0  0
  1 21  1  0     0  0
  4  9  1  0     0  0
  4 23  1  0     0  0
  5 22  1  0     0  0
  5 34  1  0     0  0
  6 10  1  0     0  0
  6 35  1  0     0  0
  7 24  3  0     0  0
  8 25  1  0     0  0
  8 26  1  0     0  0
  8 27  1  0     0  0
  9 11  1  0     0  0
  9 15  2  0     0  0
 10 16  1  0     0  0
 10 17  2  0     0  0
 11 16  2  0     0  0
 11 22  1  0     0  0
 12 13  1  0     0  0
 12 18  2  0     0  0
 12 29  1  0     0  0
 13 19  2  0     0  0
 13 28  1  0     0  0
 14 18  1  0     0  0
 14 20  2  0     0  0
 14 24  1  0     0  0
 15 17  1  0     0  0
 15 36  1  0     0  0
 16 37  1  0     0  0
 17 38  1  0     0  0
 18 39  1  0     0  0
 19 20  1  0     0  0
 19 40  1  0     0  0
 20 41  1  0     0  0
 21 42  1  0     0  0
 21 43  1  0     0  0
 21 44  1  0     0  0
 22 30  1  0     0  0
 22 45  1  0     0  0
 23 30  1  0     0  0
 23 31  1  0     0  0
 23 32  1  0     0  0
 25 28  1  0     0  0
 25 33  1  0     0  0
 25 46  1  0     0  0
 26 31  1  0     0  0
 26 47  1  0     0  0
 26 48  1  0     0  0
 27 32  1  0     0  0
 27 49  1  0     0  0
 27 50  1  0     0  0
 28 51  1  0     0  0
 28 52  1  0     0  0
 29 33  1  0     0  0
 29 53  1  0     0  0
 29 54  1  0     0  0
 30 55  1  0     0  0
 30 56  1  0     0  0
 31 57  1  0     0  0
 31 58  1  0     0  0
 32 59  1  0     0  0
 32 60  1  0     0  0
 33 61  1  0     0  0
 33 62  1  0     0  0
M  END
> <Smiles>
CS(=O)(=O)Nc1ccc2c(c1)C(O)CC1(CCN(C3CCc4cc(C#N)ccc4C3)CC1)O2

> <Name>
MK-499

> <# Confs.>
25

> <Chembl_id>
CHEMBL52627

> <prediction>
5.418598611010866

$$$$
