_Quinidine
XXILIB    06242209073D 0   0.00000     0.00000

 48 51  0     1  0            999 V2000
    0.2864   -6.6085    2.1865 O   0  0  0  0  0  2           0  0  0
   -1.9923   -2.2979    0.7412 O   0  0  0  0  0  2           0  0  0
   -1.7876   -5.7571   -2.8653 N   0  0  0  0  0  3           0  0  0
   -0.7393   -0.7210   -2.4456 N   0  0  0  0  0  3           0  0  0
   -0.2355   -6.2871    0.9654 C   0  0  0  0  0  4           0  0  0
   -1.2983   -5.8765   -1.6210 C   0  0  0  0  0  4           0  0  0
   -2.0692   -4.5227   -3.3241 C   0  0  0  0  0  4           0  0  0
   -1.0763   -4.7644   -0.7749 C   0  0  0  0  0  4           0  0  0
   -1.4074   -3.4739   -1.2820 C   0  0  0  0  0  4           0  0  0
   -0.5362   -4.9974    0.5176 C   0  0  0  0  0  4           0  0  0
   -0.4735   -7.3634    0.1196 C   0  0  0  0  0  4           0  0  0
   -0.9972   -7.1505   -1.1550 C   0  0  0  0  0  4           0  0  0
   -1.8974   -3.3687   -2.5884 C   0  0  0  0  0  4           0  0  0
   -1.2116   -2.2178   -0.4563 C   0  0  1  0  0  4           0  0  0
   -0.6710   -6.8632    3.2111 C   0  0  0  0  0  4           0  0  0
   -1.5100   -0.8934   -1.1819 C   0  0  1  0  0  4           0  0  0
    0.6784   -0.4039   -2.1458 C   0  0  0  0  0  4           0  0  0
   -1.3235    0.4198   -3.1909 C   0  0  0  0  0  4           0  0  0
    1.7737    0.8864   -0.2772 C   0  0  0  0  0  4           0  0  0
    2.0168   -0.1793    0.4952 C   0  0  0  0  0  4           0  0  0
    0.8235    0.9638   -1.4356 C   0  0  2  0  0  4           0  0  0
   -0.5880    1.4510   -1.0247 C   0  0  2  0  0  4           0  0  0
   -1.3107    0.3308   -0.2515 C   0  0  0  0  0  4           0  0  0
   -1.3783    1.6898   -2.3250 C   0  0  0  0  0  4           0  0  0
   -1.8661   -1.5088    1.2549 H   0  0  0  0  0  1           0  0  0
   -2.4494   -4.4316   -4.3201 H   0  0  0  0  0  1           0  0  0
   -0.3549   -4.1649    1.1649 H   0  0  0  0  0  1           0  0  0
   -0.2543   -8.3582    0.4471 H   0  0  0  0  0  1           0  0  0
   -1.1722   -7.9919   -1.7923 H   0  0  0  0  0  1           0  0  0
   -2.1338   -2.4132   -3.0079 H   0  0  0  0  0  1           0  0  0
   -0.1795   -2.1907   -0.1755 H   0  0  0  0  0  1           0  0  0
   -0.1633   -7.1042    4.1217 H   0  0  0  0  0  1           0  0  0
   -1.2933   -7.6841    2.9217 H   0  0  0  0  0  1           0  0  0
   -1.2751   -5.9926    3.3592 H   0  0  0  0  0  1           0  0  0
   -2.5451   -0.9196   -1.4517 H   0  0  0  0  0  1           0  0  0
    1.2290   -0.3781   -3.0630 H   0  0  0  0  0  1           0  0  0
    1.0775   -1.1676   -1.5116 H   0  0  0  0  0  1           0  0  0
   -2.3166    0.1638   -3.4960 H   0  0  0  0  0  1           0  0  0
   -0.7237    0.6140   -4.0555 H   0  0  0  0  0  1           0  0  0
    2.3153    1.7792   -0.0434 H   0  0  0  0  0  1           0  0  0
    1.5060   -1.1012    0.3110 H   0  0  0  0  0  1           0  0  0
    2.7220   -0.1093    1.2969 H   0  0  0  0  0  1           0  0  0
    1.2269    1.6657   -2.1353 H   0  0  0  0  0  1           0  0  0
   -0.5278    2.3426   -0.4361 H   0  0  0  0  0  1           0  0  0
   -0.7215    0.0437    0.5943 H   0  0  0  0  0  1           0  0  0
   -2.2640    0.6848    0.0814 H   0  0  0  0  0  1           0  0  0
   -2.3966    1.9177   -2.0881 H   0  0  0  0  0  1           0  0  0
   -0.9453    2.5079   -2.8618 H   0  0  0  0  0  1           0  0  0
  1  5  1  0     0  0
  1 15  1  0     0  0
  2 14  1  0     0  0
  2 25  1  0     0  0
  3  6  2  0     0  0
  3  7  1  0     0  0
  4 16  1  0     0  0
  4 17  1  0     0  0
  4 18  1  0     0  0
  5 10  2  0     0  0
  5 11  1  0     0  0
  6  8  1  0     0  0
  6 12  1  0     0  0
  7 13  2  0     0  0
  7 26  1  0     0  0
  8  9  2  0     0  0
  8 10  1  0     0  0
  9 13  1  0     0  0
  9 14  1  0     0  0
 10 27  1  0     0  0
 11 12  2  0     0  0
 11 28  1  0     0  0
 12 29  1  0     0  0
 13 30  1  0     0  0
 14 16  1  0     0  0
 14 31  1  0     0  0
 15 32  1  0     0  0
 15 33  1  0     0  0
 15 34  1  0     0  0
 16 23  1  0     0  0
 16 35  1  0     0  0
 17 21  1  0     0  0
 17 36  1  0     0  0
 17 37  1  0     0  0
 18 24  1  0     0  0
 18 38  1  0     0  0
 18 39  1  0     0  0
 19 20  2  0     0  0
 19 21  1  0     0  0
 19 40  1  0     0  0
 20 41  1  0     0  0
 20 42  1  0     0  0
 21 22  1  0     0  0
 21 43  1  0     0  0
 22 23  1  0     0  0
 22 24  1  0     0  0
 22 44  1  0     0  0
 23 45  1  0     0  0
 23 46  1  0     0  0
 24 47  1  0     0  0
 24 48  1  0     0  0
M  END
> <Smiles>
C=C[C@H]1CN2CC[C@H]1C[C@@H]2[C@@H](O)c1ccnc2ccc(OC)cc12

> <Name>
Quinidine

> <# Confs.>
25

> <Chembl_id>
CHEMBL1294

> <prediction>
5.935221777104088

$$$$
