10_
XXILIB    08252103503D 0   0.00000     0.00000

 31 33  0     1  0            999 V2000
    5.0107   -1.4785    0.0029 Cl  0  0  0  0  0  1           0  0  0
   -4.3458   -2.0222    3.5992 O   0  0  0  0  0  2           0  0  0
   -1.3131   -3.5489    3.4096 O   0  0  0  0  0  2           0  0  0
    0.7417   -2.5857   -0.9804 O   0  0  0  0  0  2           0  0  0
   -5.5726   -3.2864    5.0460 O   0  0  0  0  0  2           0  0  0
    1.4518    0.0000    0.0000 N   0  0  0  0  0  3           0  0  0
    3.5355    0.7714   -0.0002 N   0  0  0  0  0  3           0  0  0
    3.5508   -0.5984   -0.0049 C   0  0  0  0  0  4           0  0  0
    2.2641    1.1177    0.0000 C   0  0  0  0  0  4           0  0  0
    2.2681   -1.1139   -0.0135 C   0  0  0  0  0  4           0  0  0
   -3.4347   -2.6574    5.7095 C   0  0  0  0  0  4           0  0  0
   -2.0582   -2.6132    5.4267 C   0  0  0  0  0  4           0  0  0
   -1.2883   -1.2140    3.3739 C   0  0  0  0  0  4           0  0  0
   -0.5420    0.0000    1.3966 C   0  0  0  0  0  4           0  0  0
   -0.7994   -1.2096    2.0599 C   0  0  0  0  0  4           0  0  0
   -3.8993   -2.7748    7.0255 C   0  0  0  0  0  4           0  0  0
   -1.1591   -2.6744    6.5024 C   0  0  0  0  0  4           0  0  0
   -1.5206   -0.0007    4.0297 C   0  0  0  0  0  4           0  0  0
   -0.7731    1.2065    2.0691 C   0  0  0  0  0  4           0  0  0
   -1.2619    1.2045    3.3759 C   0  0  0  0  0  4           0  0  0
   -2.9905   -2.8352    8.0780 C   0  0  0  0  0  4           0  0  0
   -1.6241   -2.7825    7.8170 C   0  0  0  0  0  4           0  0  0
   -4.4708   -2.6029    4.6642 C   0  0  0  0  0  4           0  0  0
   -1.5399   -2.5146    4.0328 C   0  0  0  0  0  4           0  0  0
    1.7895   -2.5152   -0.0232 C   0  0  0  0  0  4           0  0  0
    0.1888   -3.8910   -1.0894 C   0  0  0  0  0  4           0  0  0
    0.0000    0.0000    0.0000 C   0  0  0  0  0  4           0  0  0
    1.7702    2.5201    0.0095 C   0  0  0  0  0  4           0  0  0
    2.5114    3.4050   -0.9886 C   0  0  0  0  0  4           0  0  0
    2.3981    2.9479   -2.4436 C   0  0  0  0  0  4           0  0  0
    3.1580    3.8724   -3.3804 C   0  0  0  0  0  4           0  0  0
  1  8  1  0     0  0
  2 23  2  0     0  0
  3 24  2  0     0  0
  4 25  1  0     0  0
  4 26  1  0     0  0
  5 23  1  0     0  0
  6  9  1  0     0  0
  6 10  1  0     0  0
  6 27  1  0     0  0
  7  8  1  0     0  0
  7  9  2  0     0  0
  8 10  2  0     0  0
  9 28  1  0     0  0
 10 25  1  0     0  0
 11 12  1  0     0  0
 11 16  2  0     0  0
 11 23  1  0     0  0
 12 17  2  0     0  0
 12 24  1  0     0  0
 13 15  2  0     0  0
 13 18  1  0     0  0
 13 24  1  0     0  0
 14 15  1  0     0  0
 14 19  2  0     0  0
 14 27  1  0     0  0
 16 21  1  0     0  0
 17 22  1  0     0  0
 18 20  2  0     0  0
 19 20  1  0     0  0
 21 22  2  0     0  0
 28 29  1  0     0  0
 29 30  1  0     0  0
 30 31  1  0     0  0
M  END
> <standard_type>
pIC50

> <# Confs.>
25

> <canonical_smiles>
ClC(N=C1CCCC)=C(COC)N1CC2=CC=CC(C(C3=CC=CC=C3C(O)=O)=O)=C2

> <standard_relation>
=

> <Publication_ID>
nan

> <predicted_activity_value>
6.958607314841775

> <actual_activity_value>
6.823908740944319

> <Compound>
10

> <standard_units>
nM

> hash
12268670834815209692

$$$$
10_
XXILIB    08252103503D 0   0.00000     0.00000

 31 33  0     1  0            999 V2000
    5.0107   -1.4785    0.0029 Cl  0  0  0  0  0  1           0  0  0
   -4.5233   -2.5755    5.1589 O   0  0  0  0  0  2           0  0  0
   -1.8613   -3.4777    3.3409 O   0  0  0  0  0  2           0  0  0
    0.7417   -2.5857   -0.9804 O   0  0  0  0  0  2           0  0  0
   -4.1941   -4.6730    5.9885 O   0  0  0  0  0  2           0  0  0
    1.4518    0.0000    0.0000 N   0  0  0  0  0  3           0  0  0
    3.5355    0.7714   -0.0002 N   0  0  0  0  0  3           0  0  0
    3.5508   -0.5984   -0.0049 C   0  0  0  0  0  4           0  0  0
    2.2641    1.1177    0.0000 C   0  0  0  0  0  4           0  0  0
    2.2681   -1.1139   -0.0135 C   0  0  0  0  0  4           0  0  0
   -2.4996   -3.1117    6.3009 C   0  0  0  0  0  4           0  0  0
   -1.4162   -2.6968    5.5068 C   0  0  0  0  0  4           0  0  0
   -1.2883   -1.2140    3.3739 C   0  0  0  0  0  4           0  0  0
   -0.5420   -0.0000    1.3966 C   0  0  0  0  0  4           0  0  0
   -0.7994   -1.2096    2.0599 C   0  0  0  0  0  4           0  0  0
   -2.3545   -3.3001    7.6811 C   0  0  0  0  0  4           0  0  0
   -0.1852   -2.4606    6.1379 C   0  0  0  0  0  4           0  0  0
   -1.5206   -0.0007    4.0297 C   0  0  0  0  0  4           0  0  0
   -0.7731    1.2065    2.0691 C   0  0  0  0  0  4           0  0  0
   -1.2619    1.2045    3.3759 C   0  0  0  0  0  4           0  0  0
   -1.1244   -3.0614    8.2871 C   0  0  0  0  0  4           0  0  0
   -0.0435   -2.6403    7.5176 C   0  0  0  0  0  4           0  0  0
   -3.8369   -3.3912    5.7508 C   0  0  0  0  0  4           0  0  0
   -1.5399   -2.5146    4.0328 C   0  0  0  0  0  4           0  0  0
    1.7895   -2.5152   -0.0232 C   0  0  0  0  0  4           0  0  0
    0.1888   -3.8910   -1.0894 C   0  0  0  0  0  4           0  0  0
    0.0000    0.0000    0.0000 C   0  0  0  0  0  4           0  0  0
    1.7702    2.5201    0.0095 C   0  0  0  0  0  4           0  0  0
    2.5114    3.4050   -0.9886 C   0  0  0  0  0  4           0  0  0
    2.3981    2.9479   -2.4436 C   0  0  0  0  0  4           0  0  0
    3.1580    3.8724   -3.3804 C   0  0  0  0  0  4           0  0  0
  1  8  1  0     0  0
  2 23  2  0     0  0
  3 24  2  0     0  0
  4 25  1  0     0  0
  4 26  1  0     0  0
  5 23  1  0     0  0
  6  9  1  0     0  0
  6 10  1  0     0  0
  6 27  1  0     0  0
  7  8  1  0     0  0
  7  9  2  0     0  0
  8 10  2  0     0  0
  9 28  1  0     0  0
 10 25  1  0     0  0
 11 12  1  0     0  0
 11 16  2  0     0  0
 11 23  1  0     0  0
 12 17  2  0     0  0
 12 24  1  0     0  0
 13 15  2  0     0  0
 13 18  1  0     0  0
 13 24  1  0     0  0
 14 15  1  0     0  0
 14 19  2  0     0  0
 14 27  1  0     0  0
 16 21  1  0     0  0
 17 22  1  0     0  0
 18 20  2  0     0  0
 19 20  1  0     0  0
 21 22  2  0     0  0
 28 29  1  0     0  0
 29 30  1  0     0  0
 30 31  1  0     0  0
M  END
> <standard_type>
pIC50

> <# Confs.>
25

> <canonical_smiles>
ClC(N=C1CCCC)=C(COC)N1CC2=CC=CC(C(C3=CC=CC=C3C(O)=O)=O)=C2

> <standard_relation>
=

> <Publication_ID>
nan

> <predicted_activity_value>
6.958607314841775

> <actual_activity_value>
6.823908740944319

> <Compound>
10

> <standard_units>
nM

> hash
12268670834815209692

$$$$
10_
XXILIB    08252103503D 0   0.00000     0.00000

 31 33  0     1  0            999 V2000
    5.0107   -1.4785    0.0029 Cl  0  0  0  0  0  1           0  0  0
    0.8778   -2.0743    5.5322 O   0  0  0  0  0  2           0  0  0
   -1.3131   -3.5489    3.4096 O   0  0  0  0  0  2           0  0  0
    0.7417   -2.5857   -0.9804 O   0  0  0  0  0  2           0  0  0
    0.8408   -3.3222    7.4395 O   0  0  0  0  0  2           0  0  0
    1.4518    0.0000    0.0000 N   0  0  0  0  0  3           0  0  0
    3.5355    0.7714   -0.0002 N   0  0  0  0  0  3           0  0  0
    3.5508   -0.5984   -0.0049 C   0  0  0  0  0  4           0  0  0
    2.2641    1.1177    0.0000 C   0  0  0  0  0  4           0  0  0
    2.2681   -1.1139   -0.0135 C   0  0  0  0  0  4           0  0  0
   -1.2007   -2.6676    6.5394 C   0  0  0  0  0  4           0  0  0
   -2.0582   -2.6132    5.4267 C   0  0  0  0  0  4           0  0  0
   -1.2883   -1.2140    3.3739 C   0  0  0  0  0  4           0  0  0
   -0.5420    0.0000    1.3966 C   0  0  0  0  0  4           0  0  0
   -0.7994   -1.2096    2.0599 C   0  0  0  0  0  4           0  0  0
   -1.7099   -2.7353    7.8424 C   0  0  0  0  0  4           0  0  0
   -3.4424   -2.6442    5.6555 C   0  0  0  0  0  4           0  0  0
   -1.5206   -0.0007    4.0297 C   0  0  0  0  0  4           0  0  0
   -0.7731    1.2065    2.0691 C   0  0  0  0  0  4           0  0  0
   -1.2619    1.2045    3.3759 C   0  0  0  0  0  4           0  0  0
   -3.0863   -2.7638    8.0474 C   0  0  0  0  0  4           0  0  0
   -3.9500   -2.7209    6.9565 C   0  0  0  0  0  4           0  0  0
    0.2672   -2.6400    6.4233 C   0  0  0  0  0  4           0  0  0
   -1.5399   -2.5146    4.0328 C   0  0  0  0  0  4           0  0  0
    1.7895   -2.5152   -0.0232 C   0  0  0  0  0  4           0  0  0
    0.1888   -3.8910   -1.0894 C   0  0  0  0  0  4           0  0  0
    0.0000    0.0000    0.0000 C   0  0  0  0  0  4           0  0  0
    1.7702    2.5201    0.0095 C   0  0  0  0  0  4           0  0  0
    2.5114    3.4050   -0.9886 C   0  0  0  0  0  4           0  0  0
    2.3981    2.9479   -2.4436 C   0  0  0  0  0  4           0  0  0
    3.1580    3.8724   -3.3804 C   0  0  0  0  0  4           0  0  0
  1  8  1  0     0  0
  2 23  2  0     0  0
  3 24  2  0     0  0
  4 25  1  0     0  0
  4 26  1  0     0  0
  5 23  1  0     0  0
  6  9  1  0     0  0
  6 10  1  0     0  0
  6 27  1  0     0  0
  7  8  1  0     0  0
  7  9  2  0     0  0
  8 10  2  0     0  0
  9 28  1  0     0  0
 10 25  1  0     0  0
 11 12  1  0     0  0
 11 16  2  0     0  0
 11 23  1  0     0  0
 12 17  2  0     0  0
 12 24  1  0     0  0
 13 15  2  0     0  0
 13 18  1  0     0  0
 13 24  1  0     0  0
 14 15  1  0     0  0
 14 19  2  0     0  0
 14 27  1  0     0  0
 16 21  1  0     0  0
 17 22  1  0     0  0
 18 20  2  0     0  0
 19 20  1  0     0  0
 21 22  2  0     0  0
 28 29  1  0     0  0
 29 30  1  0     0  0
 30 31  1  0     0  0
M  END
> <standard_type>
pIC50

> <# Confs.>
25

> <canonical_smiles>
ClC(N=C1CCCC)=C(COC)N1CC2=CC=CC(C(C3=CC=CC=C3C(O)=O)=O)=C2

> <standard_relation>
=

> <Publication_ID>
nan

> <predicted_activity_value>
6.958607314841775

> <actual_activity_value>
6.823908740944319

> <Compound>
10

> <standard_units>
nM

> hash
12268670834815209692

$$$$
10_
XXILIB    08252103503D 0   0.00000     0.00000

 31 33  0     1  0            999 V2000
    5.0107   -1.4785    0.0029 Cl  0  0  0  0  0  1           0  0  0
   -3.4371   -4.3000    2.2002 O   0  0  0  0  0  2           0  0  0
   -2.4287   -2.5893    4.8777 O   0  0  0  0  0  2           0  0  0
    0.7417   -2.5857   -0.9804 O   0  0  0  0  0  2           0  0  0
   -3.3377   -6.0155    3.6981 O   0  0  0  0  0  2           0  0  0
    1.4518    0.0000    0.0000 N   0  0  0  0  0  3           0  0  0
    3.5355    0.7714   -0.0002 N   0  0  0  0  0  3           0  0  0
    3.5508   -0.5984   -0.0049 C   0  0  0  0  0  4           0  0  0
    2.2641    1.1177    0.0000 C   0  0  0  0  0  4           0  0  0
    2.2681   -1.1139   -0.0135 C   0  0  0  0  0  4           0  0  0
   -1.3580   -4.9016    3.2014 C   0  0  0  0  0  4           0  0  0
   -0.7528   -3.7373    3.7062 C   0  0  0  0  0  4           0  0  0
   -1.2883   -1.2140    3.3739 C   0  0  0  0  0  4           0  0  0
   -0.5420    0.0000    1.3966 C   0  0  0  0  0  4           0  0  0
   -0.7994   -1.2096    2.0599 C   0  0  0  0  0  4           0  0  0
   -0.5958   -6.0312    2.8781 C   0  0  0  0  0  4           0  0  0
    0.6380   -3.7420    3.8930 C   0  0  0  0  0  4           0  0  0
   -1.5206   -0.0007    4.0297 C   0  0  0  0  0  4           0  0  0
   -0.7731    1.2065    2.0691 C   0  0  0  0  0  4           0  0  0
   -1.2619    1.2045    3.3759 C   0  0  0  0  0  4           0  0  0
    0.7828   -6.0144    3.0699 C   0  0  0  0  0  4           0  0  0
    1.3974   -4.8735    3.5784 C   0  0  0  0  0  4           0  0  0
   -2.8069   -5.0136    2.9622 C   0  0  0  0  0  4           0  0  0
   -1.5399   -2.5146    4.0328 C   0  0  0  0  0  4           0  0  0
    1.7895   -2.5152   -0.0232 C   0  0  0  0  0  4           0  0  0
    0.1888   -3.8910   -1.0894 C   0  0  0  0  0  4           0  0  0
    0.0000    0.0000    0.0000 C   0  0  0  0  0  4           0  0  0
    1.7702    2.5201    0.0095 C   0  0  0  0  0  4           0  0  0
    2.5114    3.4050   -0.9886 C   0  0  0  0  0  4           0  0  0
    2.3981    2.9479   -2.4436 C   0  0  0  0  0  4           0  0  0
    3.1580    3.8724   -3.3804 C   0  0  0  0  0  4           0  0  0
  1  8  1  0     0  0
  2 23  2  0     0  0
  3 24  2  0     0  0
  4 25  1  0     0  0
  4 26  1  0     0  0
  5 23  1  0     0  0
  6  9  1  0     0  0
  6 10  1  0     0  0
  6 27  1  0     0  0
  7  8  1  0     0  0
  7  9  2  0     0  0
  8 10  2  0     0  0
  9 28  1  0     0  0
 10 25  1  0     0  0
 11 12  1  0     0  0
 11 16  2  0     0  0
 11 23  1  0     0  0
 12 17  2  0     0  0
 12 24  1  0     0  0
 13 15  2  0     0  0
 13 18  1  0     0  0
 13 24  1  0     0  0
 14 15  1  0     0  0
 14 19  2  0     0  0
 14 27  1  0     0  0
 16 21  1  0     0  0
 17 22  1  0     0  0
 18 20  2  0     0  0
 19 20  1  0     0  0
 21 22  2  0     0  0
 28 29  1  0     0  0
 29 30  1  0     0  0
 30 31  1  0     0  0
M  END
> <standard_type>
pIC50

> <# Confs.>
25

> <canonical_smiles>
ClC(N=C1CCCC)=C(COC)N1CC2=CC=CC(C(C3=CC=CC=C3C(O)=O)=O)=C2

> <standard_relation>
=

> <Publication_ID>
nan

> <predicted_activity_value>
6.958607314841775

> <actual_activity_value>
6.823908740944319

> <Compound>
10

> <standard_units>
nM

> hash
12268670834815209692

$$$$
10_
XXILIB    08252103503D 0   0.00000     0.00000

 31 33  0     1  0            999 V2000
    5.0107   -1.4785    0.0029 Cl  0  0  0  0  0  1           0  0  0
   -4.5233   -2.5755    5.1589 O   0  0  0  0  0  2           0  0  0
   -1.8613   -3.4777    3.3409 O   0  0  0  0  0  2           0  0  0
    1.6630   -2.9164    1.3341 O   0  0  0  0  0  2           0  0  0
   -4.1941   -4.6730    5.9885 O   0  0  0  0  0  2           0  0  0
    1.4518   -0.0000   -0.0000 N   0  0  0  0  0  3           0  0  0
    3.5355    0.7714   -0.0002 N   0  0  0  0  0  3           0  0  0
    3.5508   -0.5984   -0.0049 C   0  0  0  0  0  4           0  0  0
    2.2641    1.1177    0.0000 C   0  0  0  0  0  4           0  0  0
    2.2681   -1.1139   -0.0135 C   0  0  0  0  0  4           0  0  0
   -2.4996   -3.1117    6.3009 C   0  0  0  0  0  4           0  0  0
   -1.4162   -2.6968    5.5068 C   0  0  0  0  0  4           0  0  0
   -1.2883   -1.2140    3.3739 C   0  0  0  0  0  4           0  0  0
   -0.5420   -0.0000    1.3966 C   0  0  0  0  0  4           0  0  0
   -0.7994   -1.2096    2.0599 C   0  0  0  0  0  4           0  0  0
   -2.3545   -3.3001    7.6811 C   0  0  0  0  0  4           0  0  0
   -0.1852   -2.4606    6.1379 C   0  0  0  0  0  4           0  0  0
   -1.5206   -0.0007    4.0297 C   0  0  0  0  0  4           0  0  0
   -0.7731    1.2065    2.0691 C   0  0  0  0  0  4           0  0  0
   -1.2619    1.2045    3.3759 C   0  0  0  0  0  4           0  0  0
   -1.1244   -3.0614    8.2871 C   0  0  0  0  0  4           0  0  0
   -0.0435   -2.6403    7.5176 C   0  0  0  0  0  4           0  0  0
   -3.8369   -3.3912    5.7508 C   0  0  0  0  0  4           0  0  0
   -1.5399   -2.5146    4.0328 C   0  0  0  0  0  4           0  0  0
    1.7895   -2.5152   -0.0232 C   0  0  0  0  0  4           0  0  0
    1.2065   -4.2563    1.4670 C   0  0  0  0  0  4           0  0  0
    0.0000    0.0000    0.0000 C   0  0  0  0  0  4           0  0  0
    1.7702    2.5201    0.0095 C   0  0  0  0  0  4           0  0  0
    2.5114    3.4050   -0.9886 C   0  0  0  0  0  4           0  0  0
    2.3981    2.9479   -2.4436 C   0  0  0  0  0  4           0  0  0
    3.1580    3.8724   -3.3804 C   0  0  0  0  0  4           0  0  0
  1  8  1  0     0  0
  2 23  2  0     0  0
  3 24  2  0     0  0
  4 25  1  0     0  0
  4 26  1  0     0  0
  5 23  1  0     0  0
  6  9  1  0     0  0
  6 10  1  0     0  0
  6 27  1  0     0  0
  7  8  1  0     0  0
  7  9  2  0     0  0
  8 10  2  0     0  0
  9 28  1  0     0  0
 10 25  1  0     0  0
 11 12  1  0     0  0
 11 16  2  0     0  0
 11 23  1  0     0  0
 12 17  2  0     0  0
 12 24  1  0     0  0
 13 15  2  0     0  0
 13 18  1  0     0  0
 13 24  1  0     0  0
 14 15  1  0     0  0
 14 19  2  0     0  0
 14 27  1  0     0  0
 16 21  1  0     0  0
 17 22  1  0     0  0
 18 20  2  0     0  0
 19 20  1  0     0  0
 21 22  2  0     0  0
 28 29  1  0     0  0
 29 30  1  0     0  0
 30 31  1  0     0  0
M  END
> <standard_type>
pIC50

> <# Confs.>
25

> <canonical_smiles>
ClC(N=C1CCCC)=C(COC)N1CC2=CC=CC(C(C3=CC=CC=C3C(O)=O)=O)=C2

> <standard_relation>
=

> <Publication_ID>
nan

> <predicted_activity_value>
6.958607314841775

> <actual_activity_value>
6.823908740944319

> <Compound>
10

> <standard_units>
nM

> hash
12268670834815209692

$$$$
10_
XXILIB    08252103503D 0   0.00000     0.00000

 31 33  0     1  0            999 V2000
    5.0107   -1.4785    0.0029 Cl  0  0  0  0  0  1           0  0  0
   -3.3979    4.3215    2.1143 O   0  0  0  0  0  2           0  0  0
   -2.4949    2.5943    4.8359 O   0  0  0  0  0  2           0  0  0
    0.7417   -2.5857   -0.9804 O   0  0  0  0  0  2           0  0  0
   -3.3499    6.0167    3.6375 O   0  0  0  0  0  2           0  0  0
    1.4518    0.0000    0.0000 N   0  0  0  0  0  3           0  0  0
    3.5355    0.7714   -0.0002 N   0  0  0  0  0  3           0  0  0
    3.5508   -0.5984   -0.0049 C   0  0  0  0  0  4           0  0  0
    2.2641    1.1177    0.0000 C   0  0  0  0  0  4           0  0  0
    2.2681   -1.1139   -0.0135 C   0  0  0  0  0  4           0  0  0
   -1.3560    4.9031    3.2003 C   0  0  0  0  0  4           0  0  0
   -0.7762    3.7311    3.7168 C   0  0  0  0  0  4           0  0  0
   -1.3248    1.2140    3.3597 C   0  0  0  0  0  4           0  0  0
   -0.5420    0.0000    1.3966 C   0  0  0  0  0  4           0  0  0
   -0.7994    1.2096    2.0599 C   0  0  0  0  0  4           0  0  0
   -0.5822    6.0433    2.9496 C   0  0  0  0  0  4           0  0  0
    0.6058    3.7284    3.9608 C   0  0  0  0  0  4           0  0  0
   -1.5957    0.0007    4.0005 C   0  0  0  0  0  4           0  0  0
   -0.8250   -1.2065    2.0490 C   0  0  0  0  0  4           0  0  0
   -1.3457   -1.2045    3.3434 C   0  0  0  0  0  4           0  0  0
    0.7868    6.0197    3.1997 C   0  0  0  0  0  4           0  0  0
    1.3794    4.8644    3.7016 C   0  0  0  0  0  4           0  0  0
   -2.7942    5.0247    2.9067 C   0  0  0  0  0  4           0  0  0
   -1.5836    2.5146    4.0159 C   0  0  0  0  0  4           0  0  0
    1.7895   -2.5152   -0.0232 C   0  0  0  0  0  4           0  0  0
    0.1888   -3.8910   -1.0894 C   0  0  0  0  0  4           0  0  0
    0.0000    0.0000    0.0000 C   0  0  0  0  0  4           0  0  0
    1.7702    2.5201    0.0095 C   0  0  0  0  0  4           0  0  0
    2.5114    3.4050   -0.9886 C   0  0  0  0  0  4           0  0  0
    2.3981    2.9479   -2.4436 C   0  0  0  0  0  4           0  0  0
    3.1580    3.8724   -3.3804 C   0  0  0  0  0  4           0  0  0
  1  8  1  0     0  0
  2 23  2  0     0  0
  3 24  2  0     0  0
  4 25  1  0     0  0
  4 26  1  0     0  0
  5 23  1  0     0  0
  6  9  1  0     0  0
  6 10  1  0     0  0
  6 27  1  0     0  0
  7  8  1  0     0  0
  7  9  2  0     0  0
  8 10  2  0     0  0
  9 28  1  0     0  0
 10 25  1  0     0  0
 11 12  1  0     0  0
 11 16  2  0     0  0
 11 23  1  0     0  0
 12 17  2  0     0  0
 12 24  1  0     0  0
 13 15  2  0     0  0
 13 18  1  0     0  0
 13 24  1  0     0  0
 14 15  1  0     0  0
 14 19  2  0     0  0
 14 27  1  0     0  0
 16 21  1  0     0  0
 17 22  1  0     0  0
 18 20  2  0     0  0
 19 20  1  0     0  0
 21 22  2  0     0  0
 28 29  1  0     0  0
 29 30  1  0     0  0
 30 31  1  0     0  0
M  END
> <standard_type>
pIC50

> <# Confs.>
25

> <canonical_smiles>
ClC(N=C1CCCC)=C(COC)N1CC2=CC=CC(C(C3=CC=CC=C3C(O)=O)=O)=C2

> <standard_relation>
=

> <Publication_ID>
nan

> <predicted_activity_value>
6.958607314841775

> <actual_activity_value>
6.823908740944319

> <Compound>
10

> <standard_units>
nM

> hash
12268670834815209692

$$$$
10_
XXILIB    08252103503D 0   0.00000     0.00000

 31 33  0     1  0            999 V2000
    5.0107   -1.4785    0.0029 Cl  0  0  0  0  0  1           0  0  0
   -4.3798    2.0743    3.4918 O   0  0  0  0  0  2           0  0  0
   -1.3306    3.5489    3.4028 O   0  0  0  0  0  2           0  0  0
    0.7417   -2.5857   -0.9804 O   0  0  0  0  0  2           0  0  0
   -5.6391    3.3222    4.9248 O   0  0  0  0  0  2           0  0  0
    1.4518    0.0000    0.0000 N   0  0  0  0  0  3           0  0  0
    3.5355    0.7714   -0.0002 N   0  0  0  0  0  3           0  0  0
    3.5508   -0.5984   -0.0049 C   0  0  0  0  0  4           0  0  0
    2.2641    1.1177    0.0000 C   0  0  0  0  0  4           0  0  0
    2.2681   -1.1139   -0.0135 C   0  0  0  0  0  4           0  0  0
   -3.5248    2.6676    5.6375 C   0  0  0  0  0  4           0  0  0
   -2.1412    2.6132    5.3945 C   0  0  0  0  0  4           0  0  0
   -1.3248    1.2140    3.3597 C   0  0  0  0  0  4           0  0  0
   -0.5420    0.0000    1.3966 C   0  0  0  0  0  4           0  0  0
   -0.7994    1.2096    2.0599 C   0  0  0  0  0  4           0  0  0
   -4.0279    2.7353    6.9428 C   0  0  0  0  0  4           0  0  0
   -1.2737    2.6442    6.4971 C   0  0  0  0  0  4           0  0  0
   -1.5957    0.0007    4.0005 C   0  0  0  0  0  4           0  0  0
   -0.8250   -1.2065    2.0490 C   0  0  0  0  0  4           0  0  0
   -1.3457   -1.2045    3.3434 C   0  0  0  0  0  4           0  0  0
   -3.1501    2.7638    8.0227 C   0  0  0  0  0  4           0  0  0
   -1.7766    2.7209    7.7999 C   0  0  0  0  0  4           0  0  0
   -4.5302    2.6400    4.5615 C   0  0  0  0  0  4           0  0  0
   -1.5836    2.5146    4.0159 C   0  0  0  0  0  4           0  0  0
    1.7895   -2.5152   -0.0232 C   0  0  0  0  0  4           0  0  0
    0.1888   -3.8910   -1.0894 C   0  0  0  0  0  4           0  0  0
    0.0000    0.0000    0.0000 C   0  0  0  0  0  4           0  0  0
    1.7702    2.5201    0.0095 C   0  0  0  0  0  4           0  0  0
    2.5114    3.4050   -0.9886 C   0  0  0  0  0  4           0  0  0
    2.3981    2.9479   -2.4436 C   0  0  0  0  0  4           0  0  0
    3.1580    3.8724   -3.3804 C   0  0  0  0  0  4           0  0  0
  1  8  1  0     0  0
  2 23  2  0     0  0
  3 24  2  0     0  0
  4 25  1  0     0  0
  4 26  1  0     0  0
  5 23  1  0     0  0
  6  9  1  0     0  0
  6 10  1  0     0  0
  6 27  1  0     0  0
  7  8  1  0     0  0
  7  9  2  0     0  0
  8 10  2  0     0  0
  9 28  1  0     0  0
 10 25  1  0     0  0
 11 12  1  0     0  0
 11 16  2  0     0  0
 11 23  1  0     0  0
 12 17  2  0     0  0
 12 24  1  0     0  0
 13 15  2  0     0  0
 13 18  1  0     0  0
 13 24  1  0     0  0
 14 15  1  0     0  0
 14 19  2  0     0  0
 14 27  1  0     0  0
 16 21  1  0     0  0
 17 22  1  0     0  0
 18 20  2  0     0  0
 19 20  1  0     0  0
 21 22  2  0     0  0
 28 29  1  0     0  0
 29 30  1  0     0  0
 30 31  1  0     0  0
M  END
> <standard_type>
pIC50

> <# Confs.>
25

> <canonical_smiles>
ClC(N=C1CCCC)=C(COC)N1CC2=CC=CC(C(C3=CC=CC=C3C(O)=O)=O)=C2

> <standard_relation>
=

> <Publication_ID>
nan

> <predicted_activity_value>
6.958607314841775

> <actual_activity_value>
6.823908740944319

> <Compound>
10

> <standard_units>
nM

> hash
12268670834815209692

$$$$
10_
XXILIB    08252103503D 0   0.00000     0.00000

 31 33  0     1  0            999 V2000
    5.0107   -1.4785    0.0029 Cl  0  0  0  0  0  1           0  0  0
   -4.5233   -2.5755    5.1589 O   0  0  0  0  0  2           0  0  0
   -1.8613   -3.4777    3.3409 O   0  0  0  0  0  2           0  0  0
    1.6630   -2.9164    1.3341 O   0  0  0  0  0  2           0  0  0
   -4.1941   -4.6730    5.9885 O   0  0  0  0  0  2           0  0  0
    1.4518   -0.0000   -0.0000 N   0  0  0  0  0  3           0  0  0
    3.5355    0.7714   -0.0002 N   0  0  0  0  0  3           0  0  0
    3.5508   -0.5984   -0.0049 C   0  0  0  0  0  4           0  0  0
    2.2641    1.1177    0.0000 C   0  0  0  0  0  4           0  0  0
    2.2681   -1.1139   -0.0135 C   0  0  0  0  0  4           0  0  0
   -2.4996   -3.1117    6.3009 C   0  0  0  0  0  4           0  0  0
   -1.4162   -2.6968    5.5068 C   0  0  0  0  0  4           0  0  0
   -1.2883   -1.2140    3.3739 C   0  0  0  0  0  4           0  0  0
   -0.5420   -0.0000    1.3966 C   0  0  0  0  0  4           0  0  0
   -0.7994   -1.2096    2.0599 C   0  0  0  0  0  4           0  0  0
   -2.3545   -3.3001    7.6811 C   0  0  0  0  0  4           0  0  0
   -0.1852   -2.4606    6.1379 C   0  0  0  0  0  4           0  0  0
   -1.5206   -0.0007    4.0297 C   0  0  0  0  0  4           0  0  0
   -0.7731    1.2065    2.0691 C   0  0  0  0  0  4           0  0  0
   -1.2619    1.2045    3.3759 C   0  0  0  0  0  4           0  0  0
   -1.1244   -3.0614    8.2871 C   0  0  0  0  0  4           0  0  0
   -0.0435   -2.6403    7.5176 C   0  0  0  0  0  4           0  0  0
   -3.8369   -3.3912    5.7508 C   0  0  0  0  0  4           0  0  0
   -1.5399   -2.5146    4.0328 C   0  0  0  0  0  4           0  0  0
    1.7895   -2.5152   -0.0232 C   0  0  0  0  0  4           0  0  0
    1.2065   -4.2563    1.4670 C   0  0  0  0  0  4           0  0  0
    0.0000    0.0000    0.0000 C   0  0  0  0  0  4           0  0  0
    1.7702    2.5201    0.0095 C   0  0  0  0  0  4           0  0  0
    2.5114    3.4050   -0.9886 C   0  0  0  0  0  4           0  0  0
    2.0385    4.8591   -1.0160 C   0  0  0  0  0  4           0  0  0
    2.8177    5.6809   -2.0296 C   0  0  0  0  0  4           0  0  0
  1  8  1  0     0  0
  2 23  2  0     0  0
  3 24  2  0     0  0
  4 25  1  0     0  0
  4 26  1  0     0  0
  5 23  1  0     0  0
  6  9  1  0     0  0
  6 10  1  0     0  0
  6 27  1  0     0  0
  7  8  1  0     0  0
  7  9  2  0     0  0
  8 10  2  0     0  0
  9 28  1  0     0  0
 10 25  1  0     0  0
 11 12  1  0     0  0
 11 16  2  0     0  0
 11 23  1  0     0  0
 12 17  2  0     0  0
 12 24  1  0     0  0
 13 15  2  0     0  0
 13 18  1  0     0  0
 13 24  1  0     0  0
 14 15  1  0     0  0
 14 19  2  0     0  0
 14 27  1  0     0  0
 16 21  1  0     0  0
 17 22  1  0     0  0
 18 20  2  0     0  0
 19 20  1  0     0  0
 21 22  2  0     0  0
 28 29  1  0     0  0
 29 30  1  0     0  0
 30 31  1  0     0  0
M  END
> <standard_type>
pIC50

> <# Confs.>
25

> <canonical_smiles>
ClC(N=C1CCCC)=C(COC)N1CC2=CC=CC(C(C3=CC=CC=C3C(O)=O)=O)=C2

> <standard_relation>
=

> <Publication_ID>
nan

> <predicted_activity_value>
6.958607314841775

> <actual_activity_value>
6.823908740944319

> <Compound>
10

> <standard_units>
nM

> hash
12268670834815209692

$$$$
10_
XXILIB    08252103503D 0   0.00000     0.00000

 31 33  0     1  0            999 V2000
    5.0107   -1.4785    0.0029 Cl  0  0  0  0  0  1           0  0  0
   -4.5966    2.6208    5.0432 O   0  0  0  0  0  2           0  0  0
   -1.8772    3.4827    3.3186 O   0  0  0  0  0  2           0  0  0
    0.7417   -2.5857   -0.9804 O   0  0  0  0  0  2           0  0  0
   -4.2677    4.6996    5.9188 O   0  0  0  0  0  2           0  0  0
    1.4518    0.0000    0.0000 N   0  0  0  0  0  3           0  0  0
    3.5355    0.7714   -0.0002 N   0  0  0  0  0  3           0  0  0
    3.5508   -0.5984   -0.0049 C   0  0  0  0  0  4           0  0  0
    2.2641    1.1177    0.0000 C   0  0  0  0  0  4           0  0  0
    2.2681   -1.1139   -0.0135 C   0  0  0  0  0  4           0  0  0
   -2.6036    3.1113    6.2576 C   0  0  0  0  0  4           0  0  0
   -1.5010    2.6906    5.4935 C   0  0  0  0  0  4           0  0  0
   -1.3248    1.2140    3.3597 C   0  0  0  0  0  4           0  0  0
   -0.5420    0.0000    1.3966 C   0  0  0  0  0  4           0  0  0
   -0.7994    1.2096    2.0599 C   0  0  0  0  0  4           0  0  0
   -2.5106    3.2464    7.6484 C   0  0  0  0  0  4           0  0  0
   -0.2961    2.4235    6.1615 C   0  0  0  0  0  4           0  0  0
   -1.5957    0.0007    4.0005 C   0  0  0  0  0  4           0  0  0
   -0.8250   -1.2065    2.0490 C   0  0  0  0  0  4           0  0  0
   -1.3457   -1.2045    3.3434 C   0  0  0  0  0  4           0  0  0
   -1.3063    2.9753    8.2915 C   0  0  0  0  0  4           0  0  0
   -0.2014    2.5674    7.5494 C   0  0  0  0  0  4           0  0  0
   -3.9180    3.4182    5.6681 C   0  0  0  0  0  4           0  0  0
   -1.5836    2.5146    4.0159 C   0  0  0  0  0  4           0  0  0
    1.7895   -2.5152   -0.0232 C   0  0  0  0  0  4           0  0  0
    0.1888   -3.8910   -1.0894 C   0  0  0  0  0  4           0  0  0
    0.0000    0.0000    0.0000 C   0  0  0  0  0  4           0  0  0
    1.7702    2.5201    0.0095 C   0  0  0  0  0  4           0  0  0
    2.5114    3.4050   -0.9886 C   0  0  0  0  0  4           0  0  0
    2.3981    2.9479   -2.4436 C   0  0  0  0  0  4           0  0  0
    3.1580    3.8724   -3.3804 C   0  0  0  0  0  4           0  0  0
  1  8  1  0     0  0
  2 23  2  0     0  0
  3 24  2  0     0  0
  4 25  1  0     0  0
  4 26  1  0     0  0
  5 23  1  0     0  0
  6  9  1  0     0  0
  6 10  1  0     0  0
  6 27  1  0     0  0
  7  8  1  0     0  0
  7  9  2  0     0  0
  8 10  2  0     0  0
  9 28  1  0     0  0
 10 25  1  0     0  0
 11 12  1  0     0  0
 11 16  2  0     0  0
 11 23  1  0     0  0
 12 17  2  0     0  0
 12 24  1  0     0  0
 13 15  2  0     0  0
 13 18  1  0     0  0
 13 24  1  0     0  0
 14 15  1  0     0  0
 14 19  2  0     0  0
 14 27  1  0     0  0
 16 21  1  0     0  0
 17 22  1  0     0  0
 18 20  2  0     0  0
 19 20  1  0     0  0
 21 22  2  0     0  0
 28 29  1  0     0  0
 29 30  1  0     0  0
 30 31  1  0     0  0
M  END
> <standard_type>
pIC50

> <# Confs.>
25

> <canonical_smiles>
ClC(N=C1CCCC)=C(COC)N1CC2=CC=CC(C(C3=CC=CC=C3C(O)=O)=O)=C2

> <standard_relation>
=

> <Publication_ID>
nan

> <predicted_activity_value>
6.958607314841775

> <actual_activity_value>
6.823908740944319

> <Compound>
10

> <standard_units>
nM

> hash
12268670834815209692

$$$$
10_
XXILIB    08252103503D 0   0.00000     0.00000

 31 33  0     1  0            999 V2000
    5.0107   -1.4785    0.0029 Cl  0  0  0  0  0  1           0  0  0
   -0.0087   -2.6208    6.8236 O   0  0  0  0  0  2           0  0  0
   -0.8528   -3.4827    3.7161 O   0  0  0  0  0  2           0  0  0
    0.7417   -2.5857   -0.9804 O   0  0  0  0  0  2           0  0  0
   -0.8421   -4.6996    7.2482 O   0  0  0  0  0  2           0  0  0
    1.4518    0.0000    0.0000 N   0  0  0  0  0  3           0  0  0
    3.5355    0.7714   -0.0002 N   0  0  0  0  0  3           0  0  0
    3.5508   -0.5984   -0.0049 C   0  0  0  0  0  4           0  0  0
    2.2641    1.1177    0.0000 C   0  0  0  0  0  4           0  0  0
    2.2681   -1.1139   -0.0135 C   0  0  0  0  0  4           0  0  0
   -2.2990   -3.1113    6.3758 C   0  0  0  0  0  4           0  0  0
   -2.5976   -2.6906    5.0680 C   0  0  0  0  0  4           0  0  0
   -1.2883   -1.2140    3.3739 C   0  0  0  0  0  4           0  0  0
   -0.5420   -0.0000    1.3966 C   0  0  0  0  0  4           0  0  0
   -0.7994   -1.2096    2.0599 C   0  0  0  0  0  4           0  0  0
   -3.3059   -3.2464    7.3398 C   0  0  0  0  0  4           0  0  0
   -3.9377   -2.4235    4.7483 C   0  0  0  0  0  4           0  0  0
   -1.5206   -0.0007    4.0297 C   0  0  0  0  0  4           0  0  0
   -0.7731    1.2065    2.0691 C   0  0  0  0  0  4           0  0  0
   -1.2619    1.2045    3.3759 C   0  0  0  0  0  4           0  0  0
   -4.6288   -2.9753    7.0022 C   0  0  0  0  0  4           0  0  0
   -4.9438   -2.5674    5.7090 C   0  0  0  0  0  4           0  0  0
   -0.9311   -3.4182    6.8273 C   0  0  0  0  0  4           0  0  0
   -1.5399   -2.5146    4.0328 C   0  0  0  0  0  4           0  0  0
    1.7895   -2.5152   -0.0232 C   0  0  0  0  0  4           0  0  0
    0.1888   -3.8910   -1.0894 C   0  0  0  0  0  4           0  0  0
    0.0000   -0.0000    0.0000 C   0  0  0  0  0  4           0  0  0
    1.7702    2.5201    0.0095 C   0  0  0  0  0  4           0  0  0
    2.5114    3.4050   -0.9886 C   0  0  0  0  0  4           0  0  0
    2.3981    2.9479   -2.4436 C   0  0  0  0  0  4           0  0  0
    3.1580    3.8724   -3.3804 C   0  0  0  0  0  4           0  0  0
  1  8  1  0     0  0
  2 23  2  0     0  0
  3 24  2  0     0  0
  4 25  1  0     0  0
  4 26  1  0     0  0
  5 23  1  0     0  0
  6  9  1  0     0  0
  6 10  1  0     0  0
  6 27  1  0     0  0
  7  8  1  0     0  0
  7  9  2  0     0  0
  8 10  2  0     0  0
  9 28  1  0     0  0
 10 25  1  0     0  0
 11 12  1  0     0  0
 11 16  2  0     0  0
 11 23  1  0     0  0
 12 17  2  0     0  0
 12 24  1  0     0  0
 13 15  2  0     0  0
 13 18  1  0     0  0
 13 24  1  0     0  0
 14 15  1  0     0  0
 14 19  2  0     0  0
 14 27  1  0     0  0
 16 21  1  0     0  0
 17 22  1  0     0  0
 18 20  2  0     0  0
 19 20  1  0     0  0
 21 22  2  0     0  0
 28 29  1  0     0  0
 29 30  1  0     0  0
 30 31  1  0     0  0
M  END
> <standard_type>
pIC50

> <# Confs.>
25

> <canonical_smiles>
ClC(N=C1CCCC)=C(COC)N1CC2=CC=CC(C(C3=CC=CC=C3C(O)=O)=O)=C2

> <standard_relation>
=

> <Publication_ID>
nan

> <predicted_activity_value>
6.958607314841775

> <actual_activity_value>
6.823908740944319

> <Compound>
10

> <standard_units>
nM

> hash
12268670834815209692

$$$$
10_
XXILIB    08252103503D 0   0.00000     0.00000

 31 33  0     1  0            999 V2000
    5.0107    1.4785   -0.0029 Cl  0  0  0  0  0  1           0  0  0
   -4.3798    2.0743    3.4918 O   0  0  0  0  0  2           0  0  0
   -1.3306    3.5489    3.4028 O   0  0  0  0  0  2           0  0  0
    0.7510    2.6022   -0.9429 O   0  0  0  0  0  2           0  0  0
   -5.6391    3.3222    4.9248 O   0  0  0  0  0  2           0  0  0
    1.4518    0.0000    0.0000 N   0  0  0  0  0  3           0  0  0
    3.5355   -0.7714    0.0002 N   0  0  0  0  0  3           0  0  0
    3.5508    0.5984    0.0049 C   0  0  0  0  0  4           0  0  0
    2.2641   -1.1177    0.0000 C   0  0  0  0  0  4           0  0  0
    2.2681    1.1139    0.0135 C   0  0  0  0  0  4           0  0  0
   -3.5248    2.6676    5.6375 C   0  0  0  0  0  4           0  0  0
   -2.1412    2.6132    5.3945 C   0  0  0  0  0  4           0  0  0
   -1.3248    1.2140    3.3597 C   0  0  0  0  0  4           0  0  0
   -0.5420    0.0000    1.3966 C   0  0  0  0  0  4           0  0  0
   -0.7994    1.2096    2.0599 C   0  0  0  0  0  4           0  0  0
   -4.0279    2.7353    6.9428 C   0  0  0  0  0  4           0  0  0
   -1.2737    2.6442    6.4971 C   0  0  0  0  0  4           0  0  0
   -1.5957    0.0007    4.0005 C   0  0  0  0  0  4           0  0  0
   -0.8250   -1.2065    2.0490 C   0  0  0  0  0  4           0  0  0
   -1.3457   -1.2045    3.3434 C   0  0  0  0  0  4           0  0  0
   -3.1501    2.7638    8.0227 C   0  0  0  0  0  4           0  0  0
   -1.7766    2.7209    7.7999 C   0  0  0  0  0  4           0  0  0
   -4.5302    2.6400    4.5615 C   0  0  0  0  0  4           0  0  0
   -1.5836    2.5146    4.0159 C   0  0  0  0  0  4           0  0  0
    1.7895    2.5152    0.0232 C   0  0  0  0  0  4           0  0  0
    0.1992    3.9092   -1.0348 C   0  0  0  0  0  4           0  0  0
    0.0000    0.0000    0.0000 C   0  0  0  0  0  4           0  0  0
    1.7702   -2.5201   -0.0095 C   0  0  0  0  0  4           0  0  0
    2.5114   -3.4050    0.9886 C   0  0  0  0  0  4           0  0  0
    2.3981   -2.9479    2.4436 C   0  0  0  0  0  4           0  0  0
    3.1580   -3.8724    3.3804 C   0  0  0  0  0  4           0  0  0
  1  8  1  0     0  0
  2 23  2  0     0  0
  3 24  2  0     0  0
  4 25  1  0     0  0
  4 26  1  0     0  0
  5 23  1  0     0  0
  6  9  1  0     0  0
  6 10  1  0     0  0
  6 27  1  0     0  0
  7  8  1  0     0  0
  7  9  2  0     0  0
  8 10  2  0     0  0
  9 28  1  0     0  0
 10 25  1  0     0  0
 11 12  1  0     0  0
 11 16  2  0     0  0
 11 23  1  0     0  0
 12 17  2  0     0  0
 12 24  1  0     0  0
 13 15  2  0     0  0
 13 18  1  0     0  0
 13 24  1  0     0  0
 14 15  1  0     0  0
 14 19  2  0     0  0
 14 27  1  0     0  0
 16 21  1  0     0  0
 17 22  1  0     0  0
 18 20  2  0     0  0
 19 20  1  0     0  0
 21 22  2  0     0  0
 28 29  1  0     0  0
 29 30  1  0     0  0
 30 31  1  0     0  0
M  END
> <standard_type>
pIC50

> <# Confs.>
25

> <canonical_smiles>
ClC(N=C1CCCC)=C(COC)N1CC2=CC=CC(C(C3=CC=CC=C3C(O)=O)=O)=C2

> <standard_relation>
=

> <Publication_ID>
nan

> <predicted_activity_value>
6.958607314841775

> <actual_activity_value>
6.823908740944319

> <Compound>
10

> <standard_units>
nM

> hash
12268670834815209692

$$$$
10_
XXILIB    08252103503D 0   0.00000     0.00000

 31 33  0     1  0            999 V2000
    5.0107    1.4785   -0.0029 Cl  0  0  0  0  0  1           0  0  0
   -4.5966    2.6208    5.0432 O   0  0  0  0  0  2           0  0  0
   -1.8772    3.4827    3.3186 O   0  0  0  0  0  2           0  0  0
    1.6498    2.8931    1.3859 O   0  0  0  0  0  2           0  0  0
   -4.2677    4.6996    5.9188 O   0  0  0  0  0  2           0  0  0
    1.4518    0.0000    0.0000 N   0  0  0  0  0  3           0  0  0
    3.5355   -0.7714    0.0002 N   0  0  0  0  0  3           0  0  0
    3.5508    0.5984    0.0049 C   0  0  0  0  0  4           0  0  0
    2.2641   -1.1177    0.0000 C   0  0  0  0  0  4           0  0  0
    2.2681    1.1139    0.0135 C   0  0  0  0  0  4           0  0  0
   -2.6036    3.1113    6.2576 C   0  0  0  0  0  4           0  0  0
   -1.5010    2.6906    5.4935 C   0  0  0  0  0  4           0  0  0
   -1.3248    1.2140    3.3597 C   0  0  0  0  0  4           0  0  0
   -0.5420    0.0000    1.3966 C   0  0  0  0  0  4           0  0  0
   -0.7994    1.2096    2.0599 C   0  0  0  0  0  4           0  0  0
   -2.5106    3.2464    7.6484 C   0  0  0  0  0  4           0  0  0
   -0.2961    2.4235    6.1615 C   0  0  0  0  0  4           0  0  0
   -1.5957    0.0007    4.0005 C   0  0  0  0  0  4           0  0  0
   -0.8250   -1.2065    2.0490 C   0  0  0  0  0  4           0  0  0
   -1.3457   -1.2045    3.3434 C   0  0  0  0  0  4           0  0  0
   -1.3063    2.9753    8.2915 C   0  0  0  0  0  4           0  0  0
   -0.2014    2.5674    7.5494 C   0  0  0  0  0  4           0  0  0
   -3.9180    3.4182    5.6681 C   0  0  0  0  0  4           0  0  0
   -1.5836    2.5146    4.0159 C   0  0  0  0  0  4           0  0  0
    1.7895    2.5152    0.0232 C   0  0  0  0  0  4           0  0  0
    1.1918    4.2306    1.5372 C   0  0  0  0  0  4           0  0  0
    0.0000    0.0000    0.0000 C   0  0  0  0  0  4           0  0  0
    1.7702   -2.5201   -0.0095 C   0  0  0  0  0  4           0  0  0
    2.5239   -3.3959   -1.0062 C   0  0  0  0  0  4           0  0  0
    2.4288   -2.9255   -2.4583 C   0  0  0  0  0  4           0  0  0
    3.2004   -3.8416   -3.3938 C   0  0  0  0  0  4           0  0  0
  1  8  1  0     0  0
  2 23  2  0     0  0
  3 24  2  0     0  0
  4 25  1  0     0  0
  4 26  1  0     0  0
  5 23  1  0     0  0
  6  9  1  0     0  0
  6 10  1  0     0  0
  6 27  1  0     0  0
  7  8  1  0     0  0
  7  9  2  0     0  0
  8 10  2  0     0  0
  9 28  1  0     0  0
 10 25  1  0     0  0
 11 12  1  0     0  0
 11 16  2  0     0  0
 11 23  1  0     0  0
 12 17  2  0     0  0
 12 24  1  0     0  0
 13 15  2  0     0  0
 13 18  1  0     0  0
 13 24  1  0     0  0
 14 15  1  0     0  0
 14 19  2  0     0  0
 14 27  1  0     0  0
 16 21  1  0     0  0
 17 22  1  0     0  0
 18 20  2  0     0  0
 19 20  1  0     0  0
 21 22  2  0     0  0
 28 29  1  0     0  0
 29 30  1  0     0  0
 30 31  1  0     0  0
M  END
> <standard_type>
pIC50

> <# Confs.>
25

> <canonical_smiles>
ClC(N=C1CCCC)=C(COC)N1CC2=CC=CC(C(C3=CC=CC=C3C(O)=O)=O)=C2

> <standard_relation>
=

> <Publication_ID>
nan

> <predicted_activity_value>
6.958607314841775

> <actual_activity_value>
6.823908740944319

> <Compound>
10

> <standard_units>
nM

> hash
12268670834815209692

$$$$
10_
XXILIB    08252103503D 0   0.00000     0.00000

 31 33  0     1  0            999 V2000
    5.0107    1.4785   -0.0029 Cl  0  0  0  0  0  1           0  0  0
   -4.5966    2.6208    5.0432 O   0  0  0  0  0  2           0  0  0
   -1.8772    3.4827    3.3186 O   0  0  0  0  0  2           0  0  0
    1.6498    2.8931    1.3859 O   0  0  0  0  0  2           0  0  0
   -4.2677    4.6996    5.9188 O   0  0  0  0  0  2           0  0  0
    1.4518    0.0000    0.0000 N   0  0  0  0  0  3           0  0  0
    3.5355   -0.7714    0.0002 N   0  0  0  0  0  3           0  0  0
    3.5508    0.5984    0.0049 C   0  0  0  0  0  4           0  0  0
    2.2641   -1.1177    0.0000 C   0  0  0  0  0  4           0  0  0
    2.2681    1.1139    0.0135 C   0  0  0  0  0  4           0  0  0
   -2.6036    3.1113    6.2576 C   0  0  0  0  0  4           0  0  0
   -1.5010    2.6906    5.4935 C   0  0  0  0  0  4           0  0  0
   -1.3248    1.2140    3.3597 C   0  0  0  0  0  4           0  0  0
   -0.5420    0.0000    1.3966 C   0  0  0  0  0  4           0  0  0
   -0.7994    1.2096    2.0599 C   0  0  0  0  0  4           0  0  0
   -2.5106    3.2464    7.6484 C   0  0  0  0  0  4           0  0  0
   -0.2961    2.4235    6.1615 C   0  0  0  0  0  4           0  0  0
   -1.5957    0.0007    4.0005 C   0  0  0  0  0  4           0  0  0
   -0.8250   -1.2065    2.0490 C   0  0  0  0  0  4           0  0  0
   -1.3457   -1.2045    3.3434 C   0  0  0  0  0  4           0  0  0
   -1.3063    2.9753    8.2915 C   0  0  0  0  0  4           0  0  0
   -0.2014    2.5674    7.5494 C   0  0  0  0  0  4           0  0  0
   -3.9180    3.4182    5.6681 C   0  0  0  0  0  4           0  0  0
   -1.5836    2.5146    4.0159 C   0  0  0  0  0  4           0  0  0
    1.7895    2.5152    0.0232 C   0  0  0  0  0  4           0  0  0
    1.1918    4.2306    1.5372 C   0  0  0  0  0  4           0  0  0
    0.0000    0.0000    0.0000 C   0  0  0  0  0  4           0  0  0
    1.7702   -2.5201   -0.0095 C   0  0  0  0  0  4           0  0  0
    2.5239   -3.3959   -1.0062 C   0  0  0  0  0  4           0  0  0
    2.0514   -4.8497   -1.0528 C   0  0  0  0  0  4           0  0  0
    2.8433   -5.6623   -2.0640 C   0  0  0  0  0  4           0  0  0
  1  8  1  0     0  0
  2 23  2  0     0  0
  3 24  2  0     0  0
  4 25  1  0     0  0
  4 26  1  0     0  0
  5 23  1  0     0  0
  6  9  1  0     0  0
  6 10  1  0     0  0
  6 27  1  0     0  0
  7  8  1  0     0  0
  7  9  2  0     0  0
  8 10  2  0     0  0
  9 28  1  0     0  0
 10 25  1  0     0  0
 11 12  1  0     0  0
 11 16  2  0     0  0
 11 23  1  0     0  0
 12 17  2  0     0  0
 12 24  1  0     0  0
 13 15  2  0     0  0
 13 18  1  0     0  0
 13 24  1  0     0  0
 14 15  1  0     0  0
 14 19  2  0     0  0
 14 27  1  0     0  0
 16 21  1  0     0  0
 17 22  1  0     0  0
 18 20  2  0     0  0
 19 20  1  0     0  0
 21 22  2  0     0  0
 28 29  1  0     0  0
 29 30  1  0     0  0
 30 31  1  0     0  0
M  END
> <standard_type>
pIC50

> <# Confs.>
25

> <canonical_smiles>
ClC(N=C1CCCC)=C(COC)N1CC2=CC=CC(C(C3=CC=CC=C3C(O)=O)=O)=C2

> <standard_relation>
=

> <Publication_ID>
nan

> <predicted_activity_value>
6.958607314841775

> <actual_activity_value>
6.823908740944319

> <Compound>
10

> <standard_units>
nM

> hash
12268670834815209692

$$$$
10_
XXILIB    08252103503D 0   0.00000     0.00000

 31 33  0     1  0            999 V2000
    5.0107   -1.4785    0.0029 Cl  0  0  0  0  0  1           0  0  0
    1.0822   -4.3215    3.8529 O   0  0  0  0  0  2           0  0  0
   -1.4203   -2.5943    5.2530 O   0  0  0  0  0  2           0  0  0
    0.7417   -2.5857   -0.9804 O   0  0  0  0  0  2           0  0  0
    0.0192   -6.0167    4.9450 O   0  0  0  0  0  2           0  0  0
    1.4518    0.0000    0.0000 N   0  0  0  0  0  3           0  0  0
    3.5355    0.7714   -0.0002 N   0  0  0  0  0  3           0  0  0
    3.5508   -0.5984   -0.0049 C   0  0  0  0  0  4           0  0  0
    2.2641    1.1177    0.0000 C   0  0  0  0  0  4           0  0  0
    2.2681   -1.1139   -0.0135 C   0  0  0  0  0  4           0  0  0
   -1.1578   -4.9031    3.2773 C   0  0  0  0  0  4           0  0  0
   -1.9342   -3.7311    3.2674 C   0  0  0  0  0  4           0  0  0
   -1.2883   -1.2140    3.3739 C   0  0  0  0  0  4           0  0  0
   -0.5420    0.0000    1.3966 C   0  0  0  0  0  4           0  0  0
   -0.7994   -1.2096    2.0599 C   0  0  0  0  0  4           0  0  0
   -1.5599   -6.0433    2.5702 C   0  0  0  0  0  4           0  0  0
   -3.1190   -3.7284    2.5153 C   0  0  0  0  0  4           0  0  0
   -1.5206   -0.0007    4.0297 C   0  0  0  0  0  4           0  0  0
   -0.7731    1.2065    2.0691 C   0  0  0  0  0  4           0  0  0
   -1.2619    1.2045    3.3759 C   0  0  0  0  0  4           0  0  0
   -2.7393   -6.0197    1.8314 C   0  0  0  0  0  4           0  0  0
   -3.5153   -4.8644    1.8021 C   0  0  0  0  0  4           0  0  0
    0.1019   -5.0247    4.0306 C   0  0  0  0  0  4           0  0  0
   -1.5399   -2.5146    4.0328 C   0  0  0  0  0  4           0  0  0
    1.7895   -2.5152   -0.0232 C   0  0  0  0  0  4           0  0  0
    0.1888   -3.8910   -1.0894 C   0  0  0  0  0  4           0  0  0
    0.0000   -0.0000    0.0000 C   0  0  0  0  0  4           0  0  0
    1.7702    2.5201    0.0095 C   0  0  0  0  0  4           0  0  0
    2.5114    3.4050   -0.9886 C   0  0  0  0  0  4           0  0  0
    2.3981    2.9479   -2.4436 C   0  0  0  0  0  4           0  0  0
    3.1580    3.8724   -3.3804 C   0  0  0  0  0  4           0  0  0
  1  8  1  0     0  0
  2 23  2  0     0  0
  3 24  2  0     0  0
  4 25  1  0     0  0
  4 26  1  0     0  0
  5 23  1  0     0  0
  6  9  1  0     0  0
  6 10  1  0     0  0
  6 27  1  0     0  0
  7  8  1  0     0  0
  7  9  2  0     0  0
  8 10  2  0     0  0
  9 28  1  0     0  0
 10 25  1  0     0  0
 11 12  1  0     0  0
 11 16  2  0     0  0
 11 23  1  0     0  0
 12 17  2  0     0  0
 12 24  1  0     0  0
 13 15  2  0     0  0
 13 18  1  0     0  0
 13 24  1  0     0  0
 14 15  1  0     0  0
 14 19  2  0     0  0
 14 27  1  0     0  0
 16 21  1  0     0  0
 17 22  1  0     0  0
 18 20  2  0     0  0
 19 20  1  0     0  0
 21 22  2  0     0  0
 28 29  1  0     0  0
 29 30  1  0     0  0
 30 31  1  0     0  0
M  END
> <standard_type>
pIC50

> <# Confs.>
25

> <canonical_smiles>
ClC(N=C1CCCC)=C(COC)N1CC2=CC=CC(C(C3=CC=CC=C3C(O)=O)=O)=C2

> <standard_relation>
=

> <Publication_ID>
nan

> <predicted_activity_value>
6.958607314841775

> <actual_activity_value>
6.823908740944319

> <Compound>
10

> <standard_units>
nM

> hash
12268670834815209692

$$$$
10_
XXILIB    08252103503D 0   0.00000     0.00000

 31 33  0     1  0            999 V2000
    5.0107   -1.4785    0.0029 Cl  0  0  0  0  0  1           0  0  0
    0.7868    1.6776    5.9788 O   0  0  0  0  0  2           0  0  0
   -1.3306    3.5489    3.4028 O   0  0  0  0  0  2           0  0  0
    0.7417   -2.5857   -0.9804 O   0  0  0  0  0  2           0  0  0
    0.7016    3.7178    6.9921 O   0  0  0  0  0  2           0  0  0
    1.4518    0.0000    0.0000 N   0  0  0  0  0  3           0  0  0
    3.5355    0.7714   -0.0002 N   0  0  0  0  0  3           0  0  0
    3.5508   -0.5984   -0.0049 C   0  0  0  0  0  4           0  0  0
    2.2641    1.1177    0.0000 C   0  0  0  0  0  4           0  0  0
    2.2681   -1.1139   -0.0135 C   0  0  0  0  0  4           0  0  0
   -1.3159    2.6574    6.5318 C   0  0  0  0  0  4           0  0  0
   -2.1412    2.6132    5.3945 C   0  0  0  0  0  4           0  0  0
   -1.3248    1.2140    3.3597 C   0  0  0  0  0  4           0  0  0
   -0.5420    0.0000    1.3966 C   0  0  0  0  0  4           0  0  0
   -0.7994    1.2096    2.0599 C   0  0  0  0  0  4           0  0  0
   -1.8606    2.7748    7.8167 C   0  0  0  0  0  4           0  0  0
   -3.5306    2.6744    5.5821 C   0  0  0  0  0  4           0  0  0
   -1.5957    0.0007    4.0005 C   0  0  0  0  0  4           0  0  0
   -0.8250   -1.2065    2.0490 C   0  0  0  0  0  4           0  0  0
   -1.3457   -1.2045    3.3434 C   0  0  0  0  0  4           0  0  0
   -3.2415    2.8352    7.9806 C   0  0  0  0  0  4           0  0  0
   -4.0741    2.7825    6.8662 C   0  0  0  0  0  4           0  0  0
    0.1541    2.6029    6.4590 C   0  0  0  0  0  4           0  0  0
   -1.5836    2.5146    4.0159 C   0  0  0  0  0  4           0  0  0
    1.7895   -2.5152   -0.0232 C   0  0  0  0  0  4           0  0  0
    0.1888   -3.8910   -1.0894 C   0  0  0  0  0  4           0  0  0
    0.0000    0.0000    0.0000 C   0  0  0  0  0  4           0  0  0
    1.7702    2.5201    0.0095 C   0  0  0  0  0  4           0  0  0
    2.5114    3.4050   -0.9886 C   0  0  0  0  0  4           0  0  0
    2.3981    2.9479   -2.4436 C   0  0  0  0  0  4           0  0  0
    3.1580    3.8724   -3.3804 C   0  0  0  0  0  4           0  0  0
  1  8  1  0     0  0
  2 23  2  0     0  0
  3 24  2  0     0  0
  4 25  1  0     0  0
  4 26  1  0     0  0
  5 23  1  0     0  0
  6  9  1  0     0  0
  6 10  1  0     0  0
  6 27  1  0     0  0
  7  8  1  0     0  0
  7  9  2  0     0  0
  8 10  2  0     0  0
  9 28  1  0     0  0
 10 25  1  0     0  0
 11 12  1  0     0  0
 11 16  2  0     0  0
 11 23  1  0     0  0
 12 17  2  0     0  0
 12 24  1  0     0  0
 13 15  2  0     0  0
 13 18  1  0     0  0
 13 24  1  0     0  0
 14 15  1  0     0  0
 14 19  2  0     0  0
 14 27  1  0     0  0
 16 21  1  0     0  0
 17 22  1  0     0  0
 18 20  2  0     0  0
 19 20  1  0     0  0
 21 22  2  0     0  0
 28 29  1  0     0  0
 29 30  1  0     0  0
 30 31  1  0     0  0
M  END
> <standard_type>
pIC50

> <# Confs.>
25

> <canonical_smiles>
ClC(N=C1CCCC)=C(COC)N1CC2=CC=CC(C(C3=CC=CC=C3C(O)=O)=O)=C2

> <standard_relation>
=

> <Publication_ID>
nan

> <predicted_activity_value>
6.958607314841775

> <actual_activity_value>
6.823908740944319

> <Compound>
10

> <standard_units>
nM

> hash
12268670834815209692

$$$$
10_
XXILIB    08252103503D 0   0.00000     0.00000

 31 33  0     1  0            999 V2000
    5.0107    1.4785   -0.0029 Cl  0  0  0  0  0  1           0  0  0
   -4.5966    2.6208    5.0432 O   0  0  0  0  0  2           0  0  0
   -1.8772    3.4827    3.3186 O   0  0  0  0  0  2           0  0  0
    0.7510    2.6022   -0.9429 O   0  0  0  0  0  2           0  0  0
   -4.2677    4.6996    5.9188 O   0  0  0  0  0  2           0  0  0
    1.4518    0.0000    0.0000 N   0  0  0  0  0  3           0  0  0
    3.5355   -0.7714    0.0002 N   0  0  0  0  0  3           0  0  0
    3.5508    0.5984    0.0049 C   0  0  0  0  0  4           0  0  0
    2.2641   -1.1177    0.0000 C   0  0  0  0  0  4           0  0  0
    2.2681    1.1139    0.0135 C   0  0  0  0  0  4           0  0  0
   -2.6036    3.1113    6.2576 C   0  0  0  0  0  4           0  0  0
   -1.5010    2.6906    5.4935 C   0  0  0  0  0  4           0  0  0
   -1.3248    1.2140    3.3597 C   0  0  0  0  0  4           0  0  0
   -0.5420    0.0000    1.3966 C   0  0  0  0  0  4           0  0  0
   -0.7994    1.2096    2.0599 C   0  0  0  0  0  4           0  0  0
   -2.5106    3.2464    7.6484 C   0  0  0  0  0  4           0  0  0
   -0.2961    2.4235    6.1615 C   0  0  0  0  0  4           0  0  0
   -1.5957    0.0007    4.0005 C   0  0  0  0  0  4           0  0  0
   -0.8250   -1.2065    2.0490 C   0  0  0  0  0  4           0  0  0
   -1.3457   -1.2045    3.3434 C   0  0  0  0  0  4           0  0  0
   -1.3063    2.9753    8.2915 C   0  0  0  0  0  4           0  0  0
   -0.2014    2.5674    7.5494 C   0  0  0  0  0  4           0  0  0
   -3.9180    3.4182    5.6681 C   0  0  0  0  0  4           0  0  0
   -1.5836    2.5146    4.0159 C   0  0  0  0  0  4           0  0  0
    1.7895    2.5152    0.0232 C   0  0  0  0  0  4           0  0  0
    0.1992    3.9092   -1.0348 C   0  0  0  0  0  4           0  0  0
    0.0000    0.0000    0.0000 C   0  0  0  0  0  4           0  0  0
    1.7702   -2.5201   -0.0095 C   0  0  0  0  0  4           0  0  0
    2.5114   -3.4050    0.9886 C   0  0  0  0  0  4           0  0  0
    2.3981   -2.9479    2.4436 C   0  0  0  0  0  4           0  0  0
    3.1580   -3.8724    3.3804 C   0  0  0  0  0  4           0  0  0
  1  8  1  0     0  0
  2 23  2  0     0  0
  3 24  2  0     0  0
  4 25  1  0     0  0
  4 26  1  0     0  0
  5 23  1  0     0  0
  6  9  1  0     0  0
  6 10  1  0     0  0
  6 27  1  0     0  0
  7  8  1  0     0  0
  7  9  2  0     0  0
  8 10  2  0     0  0
  9 28  1  0     0  0
 10 25  1  0     0  0
 11 12  1  0     0  0
 11 16  2  0     0  0
 11 23  1  0     0  0
 12 17  2  0     0  0
 12 24  1  0     0  0
 13 15  2  0     0  0
 13 18  1  0     0  0
 13 24  1  0     0  0
 14 15  1  0     0  0
 14 19  2  0     0  0
 14 27  1  0     0  0
 16 21  1  0     0  0
 17 22  1  0     0  0
 18 20  2  0     0  0
 19 20  1  0     0  0
 21 22  2  0     0  0
 28 29  1  0     0  0
 29 30  1  0     0  0
 30 31  1  0     0  0
M  END
> <standard_type>
pIC50

> <# Confs.>
25

> <canonical_smiles>
ClC(N=C1CCCC)=C(COC)N1CC2=CC=CC(C(C3=CC=CC=C3C(O)=O)=O)=C2

> <standard_relation>
=

> <Publication_ID>
nan

> <predicted_activity_value>
6.958607314841775

> <actual_activity_value>
6.823908740944319

> <Compound>
10

> <standard_units>
nM

> hash
12268670834815209692

$$$$
10_
XXILIB    08252103503D 0   0.00000     0.00000

 31 33  0     1  0            999 V2000
    5.0107    1.4785   -0.0029 Cl  0  0  0  0  0  1           0  0  0
   -4.3798    2.0743    3.4918 O   0  0  0  0  0  2           0  0  0
   -1.3306    3.5489    3.4028 O   0  0  0  0  0  2           0  0  0
    0.7510    2.6022   -0.9429 O   0  0  0  0  0  2           0  0  0
   -5.6391    3.3222    4.9248 O   0  0  0  0  0  2           0  0  0
    1.4518    0.0000    0.0000 N   0  0  0  0  0  3           0  0  0
    3.5355   -0.7714    0.0002 N   0  0  0  0  0  3           0  0  0
    3.5508    0.5984    0.0049 C   0  0  0  0  0  4           0  0  0
    2.2641   -1.1177    0.0000 C   0  0  0  0  0  4           0  0  0
    2.2681    1.1139    0.0135 C   0  0  0  0  0  4           0  0  0
   -3.5248    2.6676    5.6375 C   0  0  0  0  0  4           0  0  0
   -2.1412    2.6132    5.3945 C   0  0  0  0  0  4           0  0  0
   -1.3248    1.2140    3.3597 C   0  0  0  0  0  4           0  0  0
   -0.5420    0.0000    1.3966 C   0  0  0  0  0  4           0  0  0
   -0.7994    1.2096    2.0599 C   0  0  0  0  0  4           0  0  0
   -4.0279    2.7353    6.9428 C   0  0  0  0  0  4           0  0  0
   -1.2737    2.6442    6.4971 C   0  0  0  0  0  4           0  0  0
   -1.5957    0.0007    4.0005 C   0  0  0  0  0  4           0  0  0
   -0.8250   -1.2065    2.0490 C   0  0  0  0  0  4           0  0  0
   -1.3457   -1.2045    3.3434 C   0  0  0  0  0  4           0  0  0
   -3.1501    2.7638    8.0227 C   0  0  0  0  0  4           0  0  0
   -1.7766    2.7209    7.7999 C   0  0  0  0  0  4           0  0  0
   -4.5302    2.6400    4.5615 C   0  0  0  0  0  4           0  0  0
   -1.5836    2.5146    4.0159 C   0  0  0  0  0  4           0  0  0
    1.7895    2.5152    0.0232 C   0  0  0  0  0  4           0  0  0
    0.1992    3.9092   -1.0348 C   0  0  0  0  0  4           0  0  0
    0.0000    0.0000    0.0000 C   0  0  0  0  0  4           0  0  0
    1.7702   -2.5201   -0.0095 C   0  0  0  0  0  4           0  0  0
    1.5857   -3.0627   -1.4237 C   0  0  0  0  0  4           0  0  0
    1.0784   -4.5041   -1.4858 C   0  0  0  0  0  4           0  0  0
    0.9180   -4.9785   -2.9208 C   0  0  0  0  0  4           0  0  0
  1  8  1  0     0  0
  2 23  2  0     0  0
  3 24  2  0     0  0
  4 25  1  0     0  0
  4 26  1  0     0  0
  5 23  1  0     0  0
  6  9  1  0     0  0
  6 10  1  0     0  0
  6 27  1  0     0  0
  7  8  1  0     0  0
  7  9  2  0     0  0
  8 10  2  0     0  0
  9 28  1  0     0  0
 10 25  1  0     0  0
 11 12  1  0     0  0
 11 16  2  0     0  0
 11 23  1  0     0  0
 12 17  2  0     0  0
 12 24  1  0     0  0
 13 15  2  0     0  0
 13 18  1  0     0  0
 13 24  1  0     0  0
 14 15  1  0     0  0
 14 19  2  0     0  0
 14 27  1  0     0  0
 16 21  1  0     0  0
 17 22  1  0     0  0
 18 20  2  0     0  0
 19 20  1  0     0  0
 21 22  2  0     0  0
 28 29  1  0     0  0
 29 30  1  0     0  0
 30 31  1  0     0  0
M  END
> <standard_type>
pIC50

> <# Confs.>
25

> <canonical_smiles>
ClC(N=C1CCCC)=C(COC)N1CC2=CC=CC(C(C3=CC=CC=C3C(O)=O)=O)=C2

> <standard_relation>
=

> <Publication_ID>
nan

> <predicted_activity_value>
6.958607314841775

> <actual_activity_value>
6.823908740944319

> <Compound>
10

> <standard_units>
nM

> hash
12268670834815209692

$$$$
10_
XXILIB    08252103503D 0   0.00000     0.00000

 31 33  0     1  0            999 V2000
    5.0107   -1.4785    0.0029 Cl  0  0  0  0  0  1           0  0  0
   -3.3979    4.3215    2.1143 O   0  0  0  0  0  2           0  0  0
   -2.4949    2.5943    4.8359 O   0  0  0  0  0  2           0  0  0
    1.6630   -2.9164    1.3341 O   0  0  0  0  0  2           0  0  0
   -3.3499    6.0167    3.6375 O   0  0  0  0  0  2           0  0  0
    1.4518   -0.0000   -0.0000 N   0  0  0  0  0  3           0  0  0
    3.5355    0.7714   -0.0002 N   0  0  0  0  0  3           0  0  0
    3.5508   -0.5984   -0.0049 C   0  0  0  0  0  4           0  0  0
    2.2641    1.1177    0.0000 C   0  0  0  0  0  4           0  0  0
    2.2681   -1.1139   -0.0135 C   0  0  0  0  0  4           0  0  0
   -1.3560    4.9031    3.2003 C   0  0  0  0  0  4           0  0  0
   -0.7762    3.7311    3.7168 C   0  0  0  0  0  4           0  0  0
   -1.3248    1.2140    3.3597 C   0  0  0  0  0  4           0  0  0
   -0.5420    0.0000    1.3966 C   0  0  0  0  0  4           0  0  0
   -0.7994    1.2096    2.0599 C   0  0  0  0  0  4           0  0  0
   -0.5822    6.0433    2.9496 C   0  0  0  0  0  4           0  0  0
    0.6058    3.7284    3.9608 C   0  0  0  0  0  4           0  0  0
   -1.5957    0.0007    4.0005 C   0  0  0  0  0  4           0  0  0
   -0.8250   -1.2065    2.0490 C   0  0  0  0  0  4           0  0  0
   -1.3457   -1.2045    3.3434 C   0  0  0  0  0  4           0  0  0
    0.7868    6.0197    3.1997 C   0  0  0  0  0  4           0  0  0
    1.3794    4.8644    3.7016 C   0  0  0  0  0  4           0  0  0
   -2.7942    5.0247    2.9067 C   0  0  0  0  0  4           0  0  0
   -1.5836    2.5146    4.0159 C   0  0  0  0  0  4           0  0  0
    1.7895   -2.5152   -0.0232 C   0  0  0  0  0  4           0  0  0
    1.2065   -4.2563    1.4670 C   0  0  0  0  0  4           0  0  0
    0.0000    0.0000    0.0000 C   0  0  0  0  0  4           0  0  0
    1.7702    2.5201    0.0095 C   0  0  0  0  0  4           0  0  0
    2.5114    3.4050   -0.9886 C   0  0  0  0  0  4           0  0  0
    2.0385    4.8591   -1.0160 C   0  0  0  0  0  4           0  0  0
    2.8177    5.6809   -2.0296 C   0  0  0  0  0  4           0  0  0
  1  8  1  0     0  0
  2 23  2  0     0  0
  3 24  2  0     0  0
  4 25  1  0     0  0
  4 26  1  0     0  0
  5 23  1  0     0  0
  6  9  1  0     0  0
  6 10  1  0     0  0
  6 27  1  0     0  0
  7  8  1  0     0  0
  7  9  2  0     0  0
  8 10  2  0     0  0
  9 28  1  0     0  0
 10 25  1  0     0  0
 11 12  1  0     0  0
 11 16  2  0     0  0
 11 23  1  0     0  0
 12 17  2  0     0  0
 12 24  1  0     0  0
 13 15  2  0     0  0
 13 18  1  0     0  0
 13 24  1  0     0  0
 14 15  1  0     0  0
 14 19  2  0     0  0
 14 27  1  0     0  0
 16 21  1  0     0  0
 17 22  1  0     0  0
 18 20  2  0     0  0
 19 20  1  0     0  0
 21 22  2  0     0  0
 28 29  1  0     0  0
 29 30  1  0     0  0
 30 31  1  0     0  0
M  END
> <standard_type>
pIC50

> <# Confs.>
25

> <canonical_smiles>
ClC(N=C1CCCC)=C(COC)N1CC2=CC=CC(C(C3=CC=CC=C3C(O)=O)=O)=C2

> <standard_relation>
=

> <Publication_ID>
nan

> <predicted_activity_value>
6.958607314841775

> <actual_activity_value>
6.823908740944319

> <Compound>
10

> <standard_units>
nM

> hash
12268670834815209692

$$$$
10_
XXILIB    08252103503D 0   0.00000     0.00000

 31 33  0     1  0            999 V2000
    5.0107    1.4785   -0.0029 Cl  0  0  0  0  0  1           0  0  0
   -3.3979    4.3215    2.1143 O   0  0  0  0  0  2           0  0  0
   -2.4949    2.5943    4.8359 O   0  0  0  0  0  2           0  0  0
    0.7510    2.6022   -0.9429 O   0  0  0  0  0  2           0  0  0
   -3.3499    6.0167    3.6375 O   0  0  0  0  0  2           0  0  0
    1.4518    0.0000    0.0000 N   0  0  0  0  0  3           0  0  0
    3.5355   -0.7714    0.0002 N   0  0  0  0  0  3           0  0  0
    3.5508    0.5984    0.0049 C   0  0  0  0  0  4           0  0  0
    2.2641   -1.1177    0.0000 C   0  0  0  0  0  4           0  0  0
    2.2681    1.1139    0.0135 C   0  0  0  0  0  4           0  0  0
   -1.3560    4.9031    3.2003 C   0  0  0  0  0  4           0  0  0
   -0.7762    3.7311    3.7168 C   0  0  0  0  0  4           0  0  0
   -1.3248    1.2140    3.3597 C   0  0  0  0  0  4           0  0  0
   -0.5420    0.0000    1.3966 C   0  0  0  0  0  4           0  0  0
   -0.7994    1.2096    2.0599 C   0  0  0  0  0  4           0  0  0
   -0.5822    6.0433    2.9496 C   0  0  0  0  0  4           0  0  0
    0.6058    3.7284    3.9608 C   0  0  0  0  0  4           0  0  0
   -1.5957    0.0007    4.0005 C   0  0  0  0  0  4           0  0  0
   -0.8250   -1.2065    2.0490 C   0  0  0  0  0  4           0  0  0
   -1.3457   -1.2045    3.3434 C   0  0  0  0  0  4           0  0  0
    0.7868    6.0197    3.1997 C   0  0  0  0  0  4           0  0  0
    1.3794    4.8644    3.7016 C   0  0  0  0  0  4           0  0  0
   -2.7942    5.0247    2.9067 C   0  0  0  0  0  4           0  0  0
   -1.5836    2.5146    4.0159 C   0  0  0  0  0  4           0  0  0
    1.7895    2.5152    0.0232 C   0  0  0  0  0  4           0  0  0
    0.1992    3.9092   -1.0348 C   0  0  0  0  0  4           0  0  0
    0.0000    0.0000    0.0000 C   0  0  0  0  0  4           0  0  0
    1.7702   -2.5201   -0.0095 C   0  0  0  0  0  4           0  0  0
    2.5114   -3.4050    0.9886 C   0  0  0  0  0  4           0  0  0
    2.3981   -2.9479    2.4436 C   0  0  0  0  0  4           0  0  0
    3.1580   -3.8724    3.3804 C   0  0  0  0  0  4           0  0  0
  1  8  1  0     0  0
  2 23  2  0     0  0
  3 24  2  0     0  0
  4 25  1  0     0  0
  4 26  1  0     0  0
  5 23  1  0     0  0
  6  9  1  0     0  0
  6 10  1  0     0  0
  6 27  1  0     0  0
  7  8  1  0     0  0
  7  9  2  0     0  0
  8 10  2  0     0  0
  9 28  1  0     0  0
 10 25  1  0     0  0
 11 12  1  0     0  0
 11 16  2  0     0  0
 11 23  1  0     0  0
 12 17  2  0     0  0
 12 24  1  0     0  0
 13 15  2  0     0  0
 13 18  1  0     0  0
 13 24  1  0     0  0
 14 15  1  0     0  0
 14 19  2  0     0  0
 14 27  1  0     0  0
 16 21  1  0     0  0
 17 22  1  0     0  0
 18 20  2  0     0  0
 19 20  1  0     0  0
 21 22  2  0     0  0
 28 29  1  0     0  0
 29 30  1  0     0  0
 30 31  1  0     0  0
M  END
> <standard_type>
pIC50

> <# Confs.>
25

> <canonical_smiles>
ClC(N=C1CCCC)=C(COC)N1CC2=CC=CC(C(C3=CC=CC=C3C(O)=O)=O)=C2

> <standard_relation>
=

> <Publication_ID>
nan

> <predicted_activity_value>
6.958607314841775

> <actual_activity_value>
6.823908740944319

> <Compound>
10

> <standard_units>
nM

> hash
12268670834815209692

$$$$
10_
XXILIB    08252103503D 0   0.00000     0.00000

 31 33  0     1  0            999 V2000
    5.0107    1.4785   -0.0029 Cl  0  0  0  0  0  1           0  0  0
   -4.5233   -2.5755    5.1589 O   0  0  0  0  0  2           0  0  0
   -1.8613   -3.4777    3.3409 O   0  0  0  0  0  2           0  0  0
    0.7510    2.6022   -0.9429 O   0  0  0  0  0  2           0  0  0
   -4.1941   -4.6730    5.9885 O   0  0  0  0  0  2           0  0  0
    1.4518    0.0000    0.0000 N   0  0  0  0  0  3           0  0  0
    3.5355   -0.7714    0.0002 N   0  0  0  0  0  3           0  0  0
    3.5508    0.5984    0.0049 C   0  0  0  0  0  4           0  0  0
    2.2641   -1.1177    0.0000 C   0  0  0  0  0  4           0  0  0
    2.2681    1.1139    0.0135 C   0  0  0  0  0  4           0  0  0
   -2.4996   -3.1117    6.3009 C   0  0  0  0  0  4           0  0  0
   -1.4162   -2.6968    5.5068 C   0  0  0  0  0  4           0  0  0
   -1.2883   -1.2140    3.3739 C   0  0  0  0  0  4           0  0  0
   -0.5420   -0.0000    1.3966 C   0  0  0  0  0  4           0  0  0
   -0.7994   -1.2096    2.0599 C   0  0  0  0  0  4           0  0  0
   -2.3545   -3.3001    7.6811 C   0  0  0  0  0  4           0  0  0
   -0.1852   -2.4606    6.1379 C   0  0  0  0  0  4           0  0  0
   -1.5206   -0.0007    4.0297 C   0  0  0  0  0  4           0  0  0
   -0.7731    1.2065    2.0691 C   0  0  0  0  0  4           0  0  0
   -1.2619    1.2045    3.3759 C   0  0  0  0  0  4           0  0  0
   -1.1244   -3.0614    8.2871 C   0  0  0  0  0  4           0  0  0
   -0.0435   -2.6403    7.5176 C   0  0  0  0  0  4           0  0  0
   -3.8369   -3.3912    5.7508 C   0  0  0  0  0  4           0  0  0
   -1.5399   -2.5146    4.0328 C   0  0  0  0  0  4           0  0  0
    1.7895    2.5152    0.0232 C   0  0  0  0  0  4           0  0  0
    0.1992    3.9092   -1.0348 C   0  0  0  0  0  4           0  0  0
    0.0000    0.0000    0.0000 C   0  0  0  0  0  4           0  0  0
    1.7702   -2.5201   -0.0095 C   0  0  0  0  0  4           0  0  0
    2.5114   -3.4050    0.9886 C   0  0  0  0  0  4           0  0  0
    2.3981   -2.9479    2.4436 C   0  0  0  0  0  4           0  0  0
    3.1580   -3.8724    3.3804 C   0  0  0  0  0  4           0  0  0
  1  8  1  0     0  0
  2 23  2  0     0  0
  3 24  2  0     0  0
  4 25  1  0     0  0
  4 26  1  0     0  0
  5 23  1  0     0  0
  6  9  1  0     0  0
  6 10  1  0     0  0
  6 27  1  0     0  0
  7  8  1  0     0  0
  7  9  2  0     0  0
  8 10  2  0     0  0
  9 28  1  0     0  0
 10 25  1  0     0  0
 11 12  1  0     0  0
 11 16  2  0     0  0
 11 23  1  0     0  0
 12 17  2  0     0  0
 12 24  1  0     0  0
 13 15  2  0     0  0
 13 18  1  0     0  0
 13 24  1  0     0  0
 14 15  1  0     0  0
 14 19  2  0     0  0
 14 27  1  0     0  0
 16 21  1  0     0  0
 17 22  1  0     0  0
 18 20  2  0     0  0
 19 20  1  0     0  0
 21 22  2  0     0  0
 28 29  1  0     0  0
 29 30  1  0     0  0
 30 31  1  0     0  0
M  END
> <standard_type>
pIC50

> <# Confs.>
25

> <canonical_smiles>
ClC(N=C1CCCC)=C(COC)N1CC2=CC=CC(C(C3=CC=CC=C3C(O)=O)=O)=C2

> <standard_relation>
=

> <Publication_ID>
nan

> <predicted_activity_value>
6.958607314841775

> <actual_activity_value>
6.823908740944319

> <Compound>
10

> <standard_units>
nM

> hash
12268670834815209692

$$$$
10_
XXILIB    08252103503D 0   0.00000     0.00000

 31 33  0     1  0            999 V2000
    5.0107   -1.4785    0.0029 Cl  0  0  0  0  0  1           0  0  0
   -4.5966    2.6208    5.0432 O   0  0  0  0  0  2           0  0  0
   -1.8772    3.4827    3.3186 O   0  0  0  0  0  2           0  0  0
    1.6630   -2.9164    1.3341 O   0  0  0  0  0  2           0  0  0
   -4.2677    4.6996    5.9188 O   0  0  0  0  0  2           0  0  0
    1.4518   -0.0000   -0.0000 N   0  0  0  0  0  3           0  0  0
    3.5355    0.7714   -0.0002 N   0  0  0  0  0  3           0  0  0
    3.5508   -0.5984   -0.0049 C   0  0  0  0  0  4           0  0  0
    2.2641    1.1177    0.0000 C   0  0  0  0  0  4           0  0  0
    2.2681   -1.1139   -0.0135 C   0  0  0  0  0  4           0  0  0
   -2.6036    3.1113    6.2576 C   0  0  0  0  0  4           0  0  0
   -1.5010    2.6906    5.4935 C   0  0  0  0  0  4           0  0  0
   -1.3248    1.2140    3.3597 C   0  0  0  0  0  4           0  0  0
   -0.5420    0.0000    1.3966 C   0  0  0  0  0  4           0  0  0
   -0.7994    1.2096    2.0599 C   0  0  0  0  0  4           0  0  0
   -2.5106    3.2464    7.6484 C   0  0  0  0  0  4           0  0  0
   -0.2961    2.4235    6.1615 C   0  0  0  0  0  4           0  0  0
   -1.5957    0.0007    4.0005 C   0  0  0  0  0  4           0  0  0
   -0.8250   -1.2065    2.0490 C   0  0  0  0  0  4           0  0  0
   -1.3457   -1.2045    3.3434 C   0  0  0  0  0  4           0  0  0
   -1.3063    2.9753    8.2915 C   0  0  0  0  0  4           0  0  0
   -0.2014    2.5674    7.5494 C   0  0  0  0  0  4           0  0  0
   -3.9180    3.4182    5.6681 C   0  0  0  0  0  4           0  0  0
   -1.5836    2.5146    4.0159 C   0  0  0  0  0  4           0  0  0
    1.7895   -2.5152   -0.0232 C   0  0  0  0  0  4           0  0  0
    1.2065   -4.2563    1.4670 C   0  0  0  0  0  4           0  0  0
    0.0000    0.0000    0.0000 C   0  0  0  0  0  4           0  0  0
    1.7702    2.5201    0.0095 C   0  0  0  0  0  4           0  0  0
    2.5114    3.4050   -0.9886 C   0  0  0  0  0  4           0  0  0
    2.3981    2.9479   -2.4436 C   0  0  0  0  0  4           0  0  0
    3.1580    3.8724   -3.3804 C   0  0  0  0  0  4           0  0  0
  1  8  1  0     0  0
  2 23  2  0     0  0
  3 24  2  0     0  0
  4 25  1  0     0  0
  4 26  1  0     0  0
  5 23  1  0     0  0
  6  9  1  0     0  0
  6 10  1  0     0  0
  6 27  1  0     0  0
  7  8  1  0     0  0
  7  9  2  0     0  0
  8 10  2  0     0  0
  9 28  1  0     0  0
 10 25  1  0     0  0
 11 12  1  0     0  0
 11 16  2  0     0  0
 11 23  1  0     0  0
 12 17  2  0     0  0
 12 24  1  0     0  0
 13 15  2  0     0  0
 13 18  1  0     0  0
 13 24  1  0     0  0
 14 15  1  0     0  0
 14 19  2  0     0  0
 14 27  1  0     0  0
 16 21  1  0     0  0
 17 22  1  0     0  0
 18 20  2  0     0  0
 19 20  1  0     0  0
 21 22  2  0     0  0
 28 29  1  0     0  0
 29 30  1  0     0  0
 30 31  1  0     0  0
M  END
> <standard_type>
pIC50

> <# Confs.>
25

> <canonical_smiles>
ClC(N=C1CCCC)=C(COC)N1CC2=CC=CC(C(C3=CC=CC=C3C(O)=O)=O)=C2

> <standard_relation>
=

> <Publication_ID>
nan

> <predicted_activity_value>
6.958607314841775

> <actual_activity_value>
6.823908740944319

> <Compound>
10

> <standard_units>
nM

> hash
12268670834815209692

$$$$
10_
XXILIB    08252103503D 0   0.00000     0.00000

 31 33  0     1  0            999 V2000
    5.0107   -1.4785    0.0029 Cl  0  0  0  0  0  1           0  0  0
   -3.3979    4.3215    2.1143 O   0  0  0  0  0  2           0  0  0
   -2.4949    2.5943    4.8359 O   0  0  0  0  0  2           0  0  0
    1.6630   -2.9164    1.3341 O   0  0  0  0  0  2           0  0  0
   -3.3499    6.0167    3.6375 O   0  0  0  0  0  2           0  0  0
    1.4518   -0.0000   -0.0000 N   0  0  0  0  0  3           0  0  0
    3.5355    0.7714   -0.0002 N   0  0  0  0  0  3           0  0  0
    3.5508   -0.5984   -0.0049 C   0  0  0  0  0  4           0  0  0
    2.2641    1.1177    0.0000 C   0  0  0  0  0  4           0  0  0
    2.2681   -1.1139   -0.0135 C   0  0  0  0  0  4           0  0  0
   -1.3560    4.9031    3.2003 C   0  0  0  0  0  4           0  0  0
   -0.7762    3.7311    3.7168 C   0  0  0  0  0  4           0  0  0
   -1.3248    1.2140    3.3597 C   0  0  0  0  0  4           0  0  0
   -0.5420    0.0000    1.3966 C   0  0  0  0  0  4           0  0  0
   -0.7994    1.2096    2.0599 C   0  0  0  0  0  4           0  0  0
   -0.5822    6.0433    2.9496 C   0  0  0  0  0  4           0  0  0
    0.6058    3.7284    3.9608 C   0  0  0  0  0  4           0  0  0
   -1.5957    0.0007    4.0005 C   0  0  0  0  0  4           0  0  0
   -0.8250   -1.2065    2.0490 C   0  0  0  0  0  4           0  0  0
   -1.3457   -1.2045    3.3434 C   0  0  0  0  0  4           0  0  0
    0.7868    6.0197    3.1997 C   0  0  0  0  0  4           0  0  0
    1.3794    4.8644    3.7016 C   0  0  0  0  0  4           0  0  0
   -2.7942    5.0247    2.9067 C   0  0  0  0  0  4           0  0  0
   -1.5836    2.5146    4.0159 C   0  0  0  0  0  4           0  0  0
    1.7895   -2.5152   -0.0232 C   0  0  0  0  0  4           0  0  0
    1.2065   -4.2563    1.4670 C   0  0  0  0  0  4           0  0  0
    0.0000    0.0000    0.0000 C   0  0  0  0  0  4           0  0  0
    1.7702    2.5201    0.0095 C   0  0  0  0  0  4           0  0  0
    2.5114    3.4050   -0.9886 C   0  0  0  0  0  4           0  0  0
    2.3981    2.9479   -2.4436 C   0  0  0  0  0  4           0  0  0
    3.1580    3.8724   -3.3804 C   0  0  0  0  0  4           0  0  0
  1  8  1  0     0  0
  2 23  2  0     0  0
  3 24  2  0     0  0
  4 25  1  0     0  0
  4 26  1  0     0  0
  5 23  1  0     0  0
  6  9  1  0     0  0
  6 10  1  0     0  0
  6 27  1  0     0  0
  7  8  1  0     0  0
  7  9  2  0     0  0
  8 10  2  0     0  0
  9 28  1  0     0  0
 10 25  1  0     0  0
 11 12  1  0     0  0
 11 16  2  0     0  0
 11 23  1  0     0  0
 12 17  2  0     0  0
 12 24  1  0     0  0
 13 15  2  0     0  0
 13 18  1  0     0  0
 13 24  1  0     0  0
 14 15  1  0     0  0
 14 19  2  0     0  0
 14 27  1  0     0  0
 16 21  1  0     0  0
 17 22  1  0     0  0
 18 20  2  0     0  0
 19 20  1  0     0  0
 21 22  2  0     0  0
 28 29  1  0     0  0
 29 30  1  0     0  0
 30 31  1  0     0  0
M  END
> <standard_type>
pIC50

> <# Confs.>
25

> <canonical_smiles>
ClC(N=C1CCCC)=C(COC)N1CC2=CC=CC(C(C3=CC=CC=C3C(O)=O)=O)=C2

> <standard_relation>
=

> <Publication_ID>
nan

> <predicted_activity_value>
6.958607314841775

> <actual_activity_value>
6.823908740944319

> <Compound>
10

> <standard_units>
nM

> hash
12268670834815209692

$$$$
10_
XXILIB    08252103503D 0   0.00000     0.00000

 31 33  0     1  0            999 V2000
    5.0107   -1.4785    0.0029 Cl  0  0  0  0  0  1           0  0  0
   -4.3798    2.0743    3.4918 O   0  0  0  0  0  2           0  0  0
   -1.3306    3.5489    3.4028 O   0  0  0  0  0  2           0  0  0
    1.6630   -2.9164    1.3341 O   0  0  0  0  0  2           0  0  0
   -5.6391    3.3222    4.9248 O   0  0  0  0  0  2           0  0  0
    1.4518   -0.0000   -0.0000 N   0  0  0  0  0  3           0  0  0
    3.5355    0.7714   -0.0002 N   0  0  0  0  0  3           0  0  0
    3.5508   -0.5984   -0.0049 C   0  0  0  0  0  4           0  0  0
    2.2641    1.1177    0.0000 C   0  0  0  0  0  4           0  0  0
    2.2681   -1.1139   -0.0135 C   0  0  0  0  0  4           0  0  0
   -3.5248    2.6676    5.6375 C   0  0  0  0  0  4           0  0  0
   -2.1412    2.6132    5.3945 C   0  0  0  0  0  4           0  0  0
   -1.3248    1.2140    3.3597 C   0  0  0  0  0  4           0  0  0
   -0.5420    0.0000    1.3966 C   0  0  0  0  0  4           0  0  0
   -0.7994    1.2096    2.0599 C   0  0  0  0  0  4           0  0  0
   -4.0279    2.7353    6.9428 C   0  0  0  0  0  4           0  0  0
   -1.2737    2.6442    6.4971 C   0  0  0  0  0  4           0  0  0
   -1.5957    0.0007    4.0005 C   0  0  0  0  0  4           0  0  0
   -0.8250   -1.2065    2.0490 C   0  0  0  0  0  4           0  0  0
   -1.3457   -1.2045    3.3434 C   0  0  0  0  0  4           0  0  0
   -3.1501    2.7638    8.0227 C   0  0  0  0  0  4           0  0  0
   -1.7766    2.7209    7.7999 C   0  0  0  0  0  4           0  0  0
   -4.5302    2.6400    4.5615 C   0  0  0  0  0  4           0  0  0
   -1.5836    2.5146    4.0159 C   0  0  0  0  0  4           0  0  0
    1.7895   -2.5152   -0.0232 C   0  0  0  0  0  4           0  0  0
    1.2065   -4.2563    1.4670 C   0  0  0  0  0  4           0  0  0
    0.0000    0.0000    0.0000 C   0  0  0  0  0  4           0  0  0
    1.7702    2.5201    0.0095 C   0  0  0  0  0  4           0  0  0
    2.5114    3.4050   -0.9886 C   0  0  0  0  0  4           0  0  0
    2.3981    2.9479   -2.4436 C   0  0  0  0  0  4           0  0  0
    3.1580    3.8724   -3.3804 C   0  0  0  0  0  4           0  0  0
  1  8  1  0     0  0
  2 23  2  0     0  0
  3 24  2  0     0  0
  4 25  1  0     0  0
  4 26  1  0     0  0
  5 23  1  0     0  0
  6  9  1  0     0  0
  6 10  1  0     0  0
  6 27  1  0     0  0
  7  8  1  0     0  0
  7  9  2  0     0  0
  8 10  2  0     0  0
  9 28  1  0     0  0
 10 25  1  0     0  0
 11 12  1  0     0  0
 11 16  2  0     0  0
 11 23  1  0     0  0
 12 17  2  0     0  0
 12 24  1  0     0  0
 13 15  2  0     0  0
 13 18  1  0     0  0
 13 24  1  0     0  0
 14 15  1  0     0  0
 14 19  2  0     0  0
 14 27  1  0     0  0
 16 21  1  0     0  0
 17 22  1  0     0  0
 18 20  2  0     0  0
 19 20  1  0     0  0
 21 22  2  0     0  0
 28 29  1  0     0  0
 29 30  1  0     0  0
 30 31  1  0     0  0
M  END
> <standard_type>
pIC50

> <# Confs.>
25

> <canonical_smiles>
ClC(N=C1CCCC)=C(COC)N1CC2=CC=CC(C(C3=CC=CC=C3C(O)=O)=O)=C2

> <standard_relation>
=

> <Publication_ID>
nan

> <predicted_activity_value>
6.958607314841775

> <actual_activity_value>
6.823908740944319

> <Compound>
10

> <standard_units>
nM

> hash
12268670834815209692

$$$$
10_
XXILIB    08252103503D 0   0.00000     0.00000

 31 33  0     1  0            999 V2000
    5.0107    1.4785   -0.0029 Cl  0  0  0  0  0  1           0  0  0
    0.7868    1.6776    5.9788 O   0  0  0  0  0  2           0  0  0
   -1.3306    3.5489    3.4028 O   0  0  0  0  0  2           0  0  0
    0.7510    2.6022   -0.9429 O   0  0  0  0  0  2           0  0  0
    0.7016    3.7178    6.9921 O   0  0  0  0  0  2           0  0  0
    1.4518    0.0000    0.0000 N   0  0  0  0  0  3           0  0  0
    3.5355   -0.7714    0.0002 N   0  0  0  0  0  3           0  0  0
    3.5508    0.5984    0.0049 C   0  0  0  0  0  4           0  0  0
    2.2641   -1.1177    0.0000 C   0  0  0  0  0  4           0  0  0
    2.2681    1.1139    0.0135 C   0  0  0  0  0  4           0  0  0
   -1.3159    2.6574    6.5318 C   0  0  0  0  0  4           0  0  0
   -2.1412    2.6132    5.3945 C   0  0  0  0  0  4           0  0  0
   -1.3248    1.2140    3.3597 C   0  0  0  0  0  4           0  0  0
   -0.5420    0.0000    1.3966 C   0  0  0  0  0  4           0  0  0
   -0.7994    1.2096    2.0599 C   0  0  0  0  0  4           0  0  0
   -1.8606    2.7748    7.8167 C   0  0  0  0  0  4           0  0  0
   -3.5306    2.6744    5.5821 C   0  0  0  0  0  4           0  0  0
   -1.5957    0.0007    4.0005 C   0  0  0  0  0  4           0  0  0
   -0.8250   -1.2065    2.0490 C   0  0  0  0  0  4           0  0  0
   -1.3457   -1.2045    3.3434 C   0  0  0  0  0  4           0  0  0
   -3.2415    2.8352    7.9806 C   0  0  0  0  0  4           0  0  0
   -4.0741    2.7825    6.8662 C   0  0  0  0  0  4           0  0  0
    0.1541    2.6029    6.4590 C   0  0  0  0  0  4           0  0  0
   -1.5836    2.5146    4.0159 C   0  0  0  0  0  4           0  0  0
    1.7895    2.5152    0.0232 C   0  0  0  0  0  4           0  0  0
    0.1992    3.9092   -1.0348 C   0  0  0  0  0  4           0  0  0
    0.0000    0.0000    0.0000 C   0  0  0  0  0  4           0  0  0
    1.7702   -2.5201   -0.0095 C   0  0  0  0  0  4           0  0  0
    2.5114   -3.4050    0.9886 C   0  0  0  0  0  4           0  0  0
    2.3981   -2.9479    2.4436 C   0  0  0  0  0  4           0  0  0
    3.1580   -3.8724    3.3804 C   0  0  0  0  0  4           0  0  0
  1  8  1  0     0  0
  2 23  2  0     0  0
  3 24  2  0     0  0
  4 25  1  0     0  0
  4 26  1  0     0  0
  5 23  1  0     0  0
  6  9  1  0     0  0
  6 10  1  0     0  0
  6 27  1  0     0  0
  7  8  1  0     0  0
  7  9  2  0     0  0
  8 10  2  0     0  0
  9 28  1  0     0  0
 10 25  1  0     0  0
 11 12  1  0     0  0
 11 16  2  0     0  0
 11 23  1  0     0  0
 12 17  2  0     0  0
 12 24  1  0     0  0
 13 15  2  0     0  0
 13 18  1  0     0  0
 13 24  1  0     0  0
 14 15  1  0     0  0
 14 19  2  0     0  0
 14 27  1  0     0  0
 16 21  1  0     0  0
 17 22  1  0     0  0
 18 20  2  0     0  0
 19 20  1  0     0  0
 21 22  2  0     0  0
 28 29  1  0     0  0
 29 30  1  0     0  0
 30 31  1  0     0  0
M  END
> <standard_type>
pIC50

> <# Confs.>
25

> <canonical_smiles>
ClC(N=C1CCCC)=C(COC)N1CC2=CC=CC(C(C3=CC=CC=C3C(O)=O)=O)=C2

> <standard_relation>
=

> <Publication_ID>
nan

> <predicted_activity_value>
6.958607314841775

> <actual_activity_value>
6.823908740944319

> <Compound>
10

> <standard_units>
nM

> hash
12268670834815209692

$$$$
10_
XXILIB    08252103503D 0   0.00000     0.00000

 31 33  0     1  0            999 V2000
    5.0107   -1.4785    0.0029 Cl  0  0  0  0  0  1           0  0  0
   -0.1408    2.5755    6.8597 O   0  0  0  0  0  2           0  0  0
   -0.8796    3.4777    3.7218 O   0  0  0  0  0  2           0  0  0
    0.7417   -2.5857   -0.9804 O   0  0  0  0  0  2           0  0  0
   -0.9434    4.6730    7.2499 O   0  0  0  0  0  2           0  0  0
    1.4518    0.0000    0.0000 N   0  0  0  0  0  3           0  0  0
    3.5355    0.7714   -0.0002 N   0  0  0  0  0  3           0  0  0
    3.5508   -0.5984   -0.0049 C   0  0  0  0  0  4           0  0  0
    2.2641    1.1177    0.0000 C   0  0  0  0  0  4           0  0  0
    2.2681   -1.1139   -0.0135 C   0  0  0  0  0  4           0  0  0
   -2.4051    3.1117    6.3376 C   0  0  0  0  0  4           0  0  0
   -2.6692    2.6968    5.0206 C   0  0  0  0  0  4           0  0  0
   -1.3248    1.2140    3.3597 C   0  0  0  0  0  4           0  0  0
   -0.5420    0.0000    1.3966 C   0  0  0  0  0  4           0  0  0
   -0.7994    1.2096    2.0599 C   0  0  0  0  0  4           0  0  0
   -3.4432    3.3001    7.2586 C   0  0  0  0  0  4           0  0  0
   -4.0036    2.4606    4.6560 C   0  0  0  0  0  4           0  0  0
   -1.5957    0.0007    4.0005 C   0  0  0  0  0  4           0  0  0
   -0.8250   -1.2065    2.0490 C   0  0  0  0  0  4           0  0  0
   -1.3457   -1.2045    3.3434 C   0  0  0  0  0  4           0  0  0
   -4.7600    3.0614    6.8762 C   0  0  0  0  0  4           0  0  0
   -5.0390    2.6403    5.5789 C   0  0  0  0  0  4           0  0  0
   -1.0467    3.3912    6.8336 C   0  0  0  0  0  4           0  0  0
   -1.5836    2.5146    4.0159 C   0  0  0  0  0  4           0  0  0
    1.7895   -2.5152   -0.0232 C   0  0  0  0  0  4           0  0  0
    0.1888   -3.8910   -1.0894 C   0  0  0  0  0  4           0  0  0
    0.0000    0.0000    0.0000 C   0  0  0  0  0  4           0  0  0
    1.7702    2.5201    0.0095 C   0  0  0  0  0  4           0  0  0
    2.5114    3.4050   -0.9886 C   0  0  0  0  0  4           0  0  0
    2.3981    2.9479   -2.4436 C   0  0  0  0  0  4           0  0  0
    3.1580    3.8724   -3.3804 C   0  0  0  0  0  4           0  0  0
  1  8  1  0     0  0
  2 23  2  0     0  0
  3 24  2  0     0  0
  4 25  1  0     0  0
  4 26  1  0     0  0
  5 23  1  0     0  0
  6  9  1  0     0  0
  6 10  1  0     0  0
  6 27  1  0     0  0
  7  8  1  0     0  0
  7  9  2  0     0  0
  8 10  2  0     0  0
  9 28  1  0     0  0
 10 25  1  0     0  0
 11 12  1  0     0  0
 11 16  2  0     0  0
 11 23  1  0     0  0
 12 17  2  0     0  0
 12 24  1  0     0  0
 13 15  2  0     0  0
 13 18  1  0     0  0
 13 24  1  0     0  0
 14 15  1  0     0  0
 14 19  2  0     0  0
 14 27  1  0     0  0
 16 21  1  0     0  0
 17 22  1  0     0  0
 18 20  2  0     0  0
 19 20  1  0     0  0
 21 22  2  0     0  0
 28 29  1  0     0  0
 29 30  1  0     0  0
 30 31  1  0     0  0
M  END
> <standard_type>
pIC50

> <# Confs.>
25

> <canonical_smiles>
ClC(N=C1CCCC)=C(COC)N1CC2=CC=CC(C(C3=CC=CC=C3C(O)=O)=O)=C2

> <standard_relation>
=

> <Publication_ID>
nan

> <predicted_activity_value>
6.958607314841775

> <actual_activity_value>
6.823908740944319

> <Compound>
10

> <standard_units>
nM

> hash
12268670834815209692

$$$$
11_
XXILIB    08252103503D 0   0.00000     0.00000

 30 32  0     1  0            999 V2000
    5.0277   -1.4596    0.0265 Cl  0  0  0  0  0  1           0  0  0
    0.2391    4.7137    3.3960 O   0  0  0  0  0  2           0  0  0
   -0.6636    2.1343    5.6323 O   0  0  0  0  0  2           0  0  0
    1.1149    5.5379    5.3194 O   0  0  0  0  0  2           0  0  0
    1.5405   -2.8932   -1.3688 O   0  0  0  0  0  2           0  0  0
    1.4530    0.0000    0.0000 N   0  0  0  0  0  3           0  0  0
    3.5352    0.7623    0.0079 N   0  0  0  0  0  3           0  0  0
    3.5486   -0.6094    0.0071 C   0  0  0  0  0  4           0  0  0
    2.2669    1.1146   -0.0000 C   0  0  0  0  0  4           0  0  0
    2.2623   -1.1246   -0.0085 C   0  0  0  0  0  4           0  0  0
    1.9086    3.4492    4.5028 C   0  0  0  0  0  4           0  0  0
    1.4623    2.1229    4.6194 C   0  0  0  0  0  4           0  0  0
   -0.4984    0.8466    3.6806 C   0  0  0  0  0  4           0  0  0
   -0.5412    0.0000    1.3970 C   0  0  0  0  0  4           0  0  0
   -0.0007    0.8557    2.3708 C   0  0  0  0  0  4           0  0  0
    3.2807    3.7291    4.4902 C   0  0  0  0  0  4           0  0  0
    2.4022    1.0844    4.6749 C   0  0  0  0  0  4           0  0  0
   -1.5377   -0.0273    4.0198 C   0  0  0  0  0  4           0  0  0
   -1.5765   -0.8731    1.7550 C   0  0  0  0  0  4           0  0  0
   -2.0722   -0.8844    3.0581 C   0  0  0  0  0  4           0  0  0
    4.2065    2.6888    4.5630 C   0  0  0  0  0  4           0  0  0
    3.7683    1.3688    4.6469 C   0  0  0  0  0  4           0  0  0
    1.0064    4.6075    4.3417 C   0  0  0  0  0  4           0  0  0
    0.0401    1.7326    4.7165 C   0  0  0  0  0  4           0  0  0
    1.7079   -2.4956   -0.0149 C   0  0  0  0  0  4           0  0  0
    0.0000    0.0000    0.0000 C   0  0  0  0  0  4           0  0  0
    1.7822    2.5218   -0.0006 C   0  0  0  0  0  4           0  0  0
    2.5369    3.3949   -0.9983 C   0  0  0  0  0  4           0  0  0
    2.0472    4.8408   -1.0068 C   0  0  0  0  0  4           0  0  0
    2.7987    5.7133   -2.0012 C   0  0  0  0  0  4           0  0  0
  1  8  1  0     0  0
  2 23  2  0     0  0
  3 24  2  0     0  0
  4 23  1  0     0  0
  5 25  1  0     0  0
  6  9  1  0     0  0
  6 10  1  0     0  0
  6 26  1  0     0  0
  7  8  1  0     0  0
  7  9  2  0     0  0
  8 10  2  0     0  0
  9 27  1  0     0  0
 10 25  1  0     0  0
 11 12  1  0     0  0
 11 16  2  0     0  0
 11 23  1  0     0  0
 12 17  2  0     0  0
 12 24  1  0     0  0
 13 15  2  0     0  0
 13 18  1  0     0  0
 13 24  1  0     0  0
 14 15  1  0     0  0
 14 19  2  0     0  0
 14 26  1  0     0  0
 16 21  1  0     0  0
 17 22  1  0     0  0
 18 20  2  0     0  0
 19 20  1  0     0  0
 21 22  2  0     0  0
 27 28  1  0     0  0
 28 29  1  0     0  0
 29 30  1  0     0  0
M  END
> <standard_type>
pIC50

> <# Confs.>
25

> <canonical_smiles>
ClC(N=C1CCCC)=C(CO)N1CC2=CC=CC(C(C3=CC=CC=C3C(O)=O)=O)=C2

> <standard_relation>
=

> <Publication_ID>
nan

> <predicted_activity_value>
5.721246399047171

> <actual_activity_value>
6.468521082957745

> <Compound>
11

> <standard_units>
nM

> hash
16394989093989855569

$$$$
11_
XXILIB    08252103503D 0   0.00000     0.00000

 30 32  0     1  0            999 V2000
    5.0277   -1.4596    0.0265 Cl  0  0  0  0  0  1           0  0  0
    0.2391    4.7137    3.3960 O   0  0  0  0  0  2           0  0  0
   -0.6636    2.1343    5.6323 O   0  0  0  0  0  2           0  0  0
    1.1149    5.5379    5.3194 O   0  0  0  0  0  2           0  0  0
    1.5405   -2.8932   -1.3688 O   0  0  0  0  0  2           0  0  0
    1.4530    0.0000    0.0000 N   0  0  0  0  0  3           0  0  0
    3.5352    0.7623    0.0079 N   0  0  0  0  0  3           0  0  0
    3.5486   -0.6094    0.0071 C   0  0  0  0  0  4           0  0  0
    2.2669    1.1146   -0.0000 C   0  0  0  0  0  4           0  0  0
    2.2623   -1.1246   -0.0085 C   0  0  0  0  0  4           0  0  0
    1.9086    3.4492    4.5028 C   0  0  0  0  0  4           0  0  0
    1.4623    2.1229    4.6194 C   0  0  0  0  0  4           0  0  0
   -0.4984    0.8466    3.6806 C   0  0  0  0  0  4           0  0  0
   -0.5412    0.0000    1.3970 C   0  0  0  0  0  4           0  0  0
   -0.0007    0.8557    2.3708 C   0  0  0  0  0  4           0  0  0
    3.2807    3.7291    4.4902 C   0  0  0  0  0  4           0  0  0
    2.4022    1.0844    4.6749 C   0  0  0  0  0  4           0  0  0
   -1.5377   -0.0273    4.0198 C   0  0  0  0  0  4           0  0  0
   -1.5765   -0.8731    1.7550 C   0  0  0  0  0  4           0  0  0
   -2.0722   -0.8844    3.0581 C   0  0  0  0  0  4           0  0  0
    4.2065    2.6888    4.5630 C   0  0  0  0  0  4           0  0  0
    3.7683    1.3688    4.6469 C   0  0  0  0  0  4           0  0  0
    1.0064    4.6075    4.3417 C   0  0  0  0  0  4           0  0  0
    0.0401    1.7326    4.7165 C   0  0  0  0  0  4           0  0  0
    1.7079   -2.4956   -0.0149 C   0  0  0  0  0  4           0  0  0
    0.0000    0.0000    0.0000 C   0  0  0  0  0  4           0  0  0
    1.7822    2.5218   -0.0006 C   0  0  0  0  0  4           0  0  0
    2.5369    3.3949   -0.9983 C   0  0  0  0  0  4           0  0  0
    2.4056    2.8983   -2.4358 C   0  0  0  0  0  4           0  0  0
    3.1577    3.7679   -3.4323 C   0  0  0  0  0  4           0  0  0
  1  8  1  0     0  0
  2 23  2  0     0  0
  3 24  2  0     0  0
  4 23  1  0     0  0
  5 25  1  0     0  0
  6  9  1  0     0  0
  6 10  1  0     0  0
  6 26  1  0     0  0
  7  8  1  0     0  0
  7  9  2  0     0  0
  8 10  2  0     0  0
  9 27  1  0     0  0
 10 25  1  0     0  0
 11 12  1  0     0  0
 11 16  2  0     0  0
 11 23  1  0     0  0
 12 17  2  0     0  0
 12 24  1  0     0  0
 13 15  2  0     0  0
 13 18  1  0     0  0
 13 24  1  0     0  0
 14 15  1  0     0  0
 14 19  2  0     0  0
 14 26  1  0     0  0
 16 21  1  0     0  0
 17 22  1  0     0  0
 18 20  2  0     0  0
 19 20  1  0     0  0
 21 22  2  0     0  0
 27 28  1  0     0  0
 28 29  1  0     0  0
 29 30  1  0     0  0
M  END
> <standard_type>
pIC50

> <# Confs.>
25

> <canonical_smiles>
ClC(N=C1CCCC)=C(CO)N1CC2=CC=CC(C(C3=CC=CC=C3C(O)=O)=O)=C2

> <standard_relation>
=

> <Publication_ID>
nan

> <predicted_activity_value>
5.721246399047171

> <actual_activity_value>
6.468521082957745

> <Compound>
11

> <standard_units>
nM

> hash
16394989093989855569

$$$$
11_
XXILIB    08252103503D 0   0.00000     0.00000

 30 32  0     1  0            999 V2000
    5.0277    1.4596   -0.0265 Cl  0  0  0  0  0  1           0  0  0
   -3.2979   -4.8861    2.0870 O   0  0  0  0  0  2           0  0  0
   -2.4827   -2.5219    4.9174 O   0  0  0  0  0  2           0  0  0
   -3.2678   -5.6918    4.2074 O   0  0  0  0  0  2           0  0  0
    1.5405    2.8932    1.3688 O   0  0  0  0  0  2           0  0  0
    1.4530   -0.0000    0.0000 N   0  0  0  0  0  3           0  0  0
    3.5352   -0.7623   -0.0079 N   0  0  0  0  0  3           0  0  0
    3.5486    0.6094   -0.0071 C   0  0  0  0  0  4           0  0  0
    2.2669   -1.1146    0.0000 C   0  0  0  0  0  4           0  0  0
    2.2623    1.1246    0.0085 C   0  0  0  0  0  4           0  0  0
   -1.2491   -4.8462    3.2753 C   0  0  0  0  0  4           0  0  0
   -0.7495   -3.6319    3.7732 C   0  0  0  0  0  4           0  0  0
   -1.3167   -1.2101    3.3636 C   0  0  0  0  0  4           0  0  0
   -0.5412    0.0000    1.3970 C   0  0  0  0  0  4           0  0  0
   -0.7986   -1.2101    2.0617 C   0  0  0  0  0  4           0  0  0
   -0.3684   -5.8820    2.9392 C   0  0  0  0  0  4           0  0  0
    0.6304   -3.4874    3.9732 C   0  0  0  0  0  4           0  0  0
   -1.5845    0.0065    4.0017 C   0  0  0  0  0  4           0  0  0
   -0.8212    1.2086    2.0476 C   0  0  0  0  0  4           0  0  0
   -1.3378    1.2106    3.3425 C   0  0  0  0  0  4           0  0  0
    1.0039   -5.7204    3.1269 C   0  0  0  0  0  4           0  0  0
    1.5016   -4.5289    3.6504 C   0  0  0  0  0  4           0  0  0
   -2.6881   -5.1380    3.1163 C   0  0  0  0  0  4           0  0  0
   -1.5890   -2.4562    4.0854 C   0  0  0  0  0  4           0  0  0
    1.7079    2.4956    0.0149 C   0  0  0  0  0  4           0  0  0
    0.0000    0.0000    0.0000 C   0  0  0  0  0  4           0  0  0
    1.7822   -2.5218    0.0006 C   0  0  0  0  0  4           0  0  0
    2.5361   -3.3955   -0.9971 C   0  0  0  0  0  4           0  0  0
    2.0464   -4.8414   -1.0045 C   0  0  0  0  0  4           0  0  0
    2.7972   -5.7145   -1.9990 C   0  0  0  0  0  4           0  0  0
  1  8  1  0     0  0
  2 23  2  0     0  0
  3 24  2  0     0  0
  4 23  1  0     0  0
  5 25  1  0     0  0
  6  9  1  0     0  0
  6 10  1  0     0  0
  6 26  1  0     0  0
  7  8  1  0     0  0
  7  9  2  0     0  0
  8 10  2  0     0  0
  9 27  1  0     0  0
 10 25  1  0     0  0
 11 12  1  0     0  0
 11 16  2  0     0  0
 11 23  1  0     0  0
 12 17  2  0     0  0
 12 24  1  0     0  0
 13 15  2  0     0  0
 13 18  1  0     0  0
 13 24  1  0     0  0
 14 15  1  0     0  0
 14 19  2  0     0  0
 14 26  1  0     0  0
 16 21  1  0     0  0
 17 22  1  0     0  0
 18 20  2  0     0  0
 19 20  1  0     0  0
 21 22  2  0     0  0
 27 28  1  0     0  0
 28 29  1  0     0  0
 29 30  1  0     0  0
M  END
> <standard_type>
pIC50

> <# Confs.>
25

> <canonical_smiles>
ClC(N=C1CCCC)=C(CO)N1CC2=CC=CC(C(C3=CC=CC=C3C(O)=O)=O)=C2

> <standard_relation>
=

> <Publication_ID>
nan

> <predicted_activity_value>
5.721246399047171

> <actual_activity_value>
6.468521082957745

> <Compound>
11

> <standard_units>
nM

> hash
16394989093989855569

$$$$
11_
XXILIB    08252103503D 0   0.00000     0.00000

 30 32  0     1  0            999 V2000
    5.0277    1.4596   -0.0265 Cl  0  0  0  0  0  1           0  0  0
   -4.0156   -3.2481    1.5750 O   0  0  0  0  0  2           0  0  0
   -2.0412   -2.4422    5.2215 O   0  0  0  0  0  2           0  0  0
   -4.4757   -4.5653    3.3636 O   0  0  0  0  0  2           0  0  0
    1.5405    2.8932    1.3688 O   0  0  0  0  0  2           0  0  0
    1.4530   -0.0000    0.0000 N   0  0  0  0  0  3           0  0  0
    3.5352   -0.7623   -0.0079 N   0  0  0  0  0  3           0  0  0
    3.5486    0.6094   -0.0071 C   0  0  0  0  0  4           0  0  0
    2.2669   -1.1146    0.0000 C   0  0  0  0  0  4           0  0  0
    2.2623    1.1246    0.0085 C   0  0  0  0  0  4           0  0  0
   -2.2286   -4.4203    2.5965 C   0  0  0  0  0  4           0  0  0
   -1.3014   -3.7307    3.3945 C   0  0  0  0  0  4           0  0  0
   -1.3167   -1.2101    3.3636 C   0  0  0  0  0  4           0  0  0
   -0.5412   -0.0000    1.3970 C   0  0  0  0  0  4           0  0  0
   -0.7986   -1.2101    2.0617 C   0  0  0  0  0  4           0  0  0
   -1.8433   -5.5850    1.9209 C   0  0  0  0  0  4           0  0  0
   -0.0063   -4.2458    3.5435 C   0  0  0  0  0  4           0  0  0
   -1.5845    0.0065    4.0017 C   0  0  0  0  0  4           0  0  0
   -0.8212    1.2086    2.0476 C   0  0  0  0  0  4           0  0  0
   -1.3378    1.2106    3.3425 C   0  0  0  0  0  4           0  0  0
   -0.5470   -6.0787    2.0635 C   0  0  0  0  0  4           0  0  0
    0.3671   -5.4153    2.8794 C   0  0  0  0  0  4           0  0  0
   -3.6420   -4.0187    2.4474 C   0  0  0  0  0  4           0  0  0
   -1.5890   -2.4562    4.0854 C   0  0  0  0  0  4           0  0  0
    1.7079    2.4956    0.0149 C   0  0  0  0  0  4           0  0  0
    0.0000    0.0000    0.0000 C   0  0  0  0  0  4           0  0  0
    1.7822   -2.5218    0.0006 C   0  0  0  0  0  4           0  0  0
    2.5361   -3.3955   -0.9971 C   0  0  0  0  0  4           0  0  0
    2.0464   -4.8414   -1.0045 C   0  0  0  0  0  4           0  0  0
    2.7972   -5.7145   -1.9990 C   0  0  0  0  0  4           0  0  0
  1  8  1  0     0  0
  2 23  2  0     0  0
  3 24  2  0     0  0
  4 23  1  0     0  0
  5 25  1  0     0  0
  6  9  1  0     0  0
  6 10  1  0     0  0
  6 26  1  0     0  0
  7  8  1  0     0  0
  7  9  2  0     0  0
  8 10  2  0     0  0
  9 27  1  0     0  0
 10 25  1  0     0  0
 11 12  1  0     0  0
 11 16  2  0     0  0
 11 23  1  0     0  0
 12 17  2  0     0  0
 12 24  1  0     0  0
 13 15  2  0     0  0
 13 18  1  0     0  0
 13 24  1  0     0  0
 14 15  1  0     0  0
 14 19  2  0     0  0
 14 26  1  0     0  0
 16 21  1  0     0  0
 17 22  1  0     0  0
 18 20  2  0     0  0
 19 20  1  0     0  0
 21 22  2  0     0  0
 27 28  1  0     0  0
 28 29  1  0     0  0
 29 30  1  0     0  0
M  END
> <standard_type>
pIC50

> <# Confs.>
25

> <canonical_smiles>
ClC(N=C1CCCC)=C(CO)N1CC2=CC=CC(C(C3=CC=CC=C3C(O)=O)=O)=C2

> <standard_relation>
=

> <Publication_ID>
nan

> <predicted_activity_value>
5.721246399047171

> <actual_activity_value>
6.468521082957745

> <Compound>
11

> <standard_units>
nM

> hash
16394989093989855569

$$$$
11_
XXILIB    08252103503D 0   0.00000     0.00000

 30 32  0     1  0            999 V2000
    5.0277    1.4596   -0.0265 Cl  0  0  0  0  0  1           0  0  0
   -3.8187    3.1587    1.2963 O   0  0  0  0  0  2           0  0  0
   -2.0089    2.4422    5.2340 O   0  0  0  0  0  2           0  0  0
   -4.5779    4.1868    3.1705 O   0  0  0  0  0  2           0  0  0
    1.5405    2.8932    1.3688 O   0  0  0  0  0  2           0  0  0
    1.4530   -0.0000    0.0000 N   0  0  0  0  0  3           0  0  0
    3.5352   -0.7623   -0.0079 N   0  0  0  0  0  3           0  0  0
    3.5486    0.6094   -0.0071 C   0  0  0  0  0  4           0  0  0
    2.2669   -1.1146    0.0000 C   0  0  0  0  0  4           0  0  0
    2.2623    1.1246    0.0085 C   0  0  0  0  0  4           0  0  0
   -2.2782    4.3989    2.6000 C   0  0  0  0  0  4           0  0  0
   -1.3249    3.7307    3.3853 C   0  0  0  0  0  4           0  0  0
   -1.2928    1.2101    3.3729 C   0  0  0  0  0  4           0  0  0
   -0.5412   -0.0000    1.3970 C   0  0  0  0  0  4           0  0  0
   -0.7986    1.2101    2.0617 C   0  0  0  0  0  4           0  0  0
   -1.9710    5.6402    2.0290 C   0  0  0  0  0  4           0  0  0
   -0.0529    4.2961    3.5505 C   0  0  0  0  0  4           0  0  0
   -1.5247   -0.0065    4.0249 C   0  0  0  0  0  4           0  0  0
   -0.7724   -1.2086    2.0665 C   0  0  0  0  0  4           0  0  0
   -1.2630   -1.2106    3.3715 C   0  0  0  0  0  4           0  0  0
   -0.7077    6.2008    2.2142 C   0  0  0  0  0  4           0  0  0
    0.2520    5.5264    2.9664 C   0  0  0  0  0  4           0  0  0
   -3.6120    3.8491    2.2838 C   0  0  0  0  0  4           0  0  0
   -1.5778    2.4562    4.0898 C   0  0  0  0  0  4           0  0  0
    1.7079    2.4956    0.0149 C   0  0  0  0  0  4           0  0  0
    0.0000    0.0000    0.0000 C   0  0  0  0  0  4           0  0  0
    1.7822   -2.5218    0.0006 C   0  0  0  0  0  4           0  0  0
    2.5361   -3.3955   -0.9971 C   0  0  0  0  0  4           0  0  0
    2.0464   -4.8414   -1.0045 C   0  0  0  0  0  4           0  0  0
    2.7972   -5.7145   -1.9990 C   0  0  0  0  0  4           0  0  0
  1  8  1  0     0  0
  2 23  2  0     0  0
  3 24  2  0     0  0
  4 23  1  0     0  0
  5 25  1  0     0  0
  6  9  1  0     0  0
  6 10  1  0     0  0
  6 26  1  0     0  0
  7  8  1  0     0  0
  7  9  2  0     0  0
  8 10  2  0     0  0
  9 27  1  0     0  0
 10 25  1  0     0  0
 11 12  1  0     0  0
 11 16  2  0     0  0
 11 23  1  0     0  0
 12 17  2  0     0  0
 12 24  1  0     0  0
 13 15  2  0     0  0
 13 18  1  0     0  0
 13 24  1  0     0  0
 14 15  1  0     0  0
 14 19  2  0     0  0
 14 26  1  0     0  0
 16 21  1  0     0  0
 17 22  1  0     0  0
 18 20  2  0     0  0
 19 20  1  0     0  0
 21 22  2  0     0  0
 27 28  1  0     0  0
 28 29  1  0     0  0
 29 30  1  0     0  0
M  END
> <standard_type>
pIC50

> <# Confs.>
25

> <canonical_smiles>
ClC(N=C1CCCC)=C(CO)N1CC2=CC=CC(C(C3=CC=CC=C3C(O)=O)=O)=C2

> <standard_relation>
=

> <Publication_ID>
nan

> <predicted_activity_value>
5.721246399047171

> <actual_activity_value>
6.468521082957745

> <Compound>
11

> <standard_units>
nM

> hash
16394989093989855569

$$$$
11_
XXILIB    08252103503D 0   0.00000     0.00000

 30 32  0     1  0            999 V2000
    5.0277    1.4596   -0.0265 Cl  0  0  0  0  0  1           0  0  0
   -3.8187    3.1587    1.2963 O   0  0  0  0  0  2           0  0  0
   -2.0089    2.4422    5.2340 O   0  0  0  0  0  2           0  0  0
   -4.5779    4.1868    3.1705 O   0  0  0  0  0  2           0  0  0
    1.5405    2.8932    1.3688 O   0  0  0  0  0  2           0  0  0
    1.4530   -0.0000    0.0000 N   0  0  0  0  0  3           0  0  0
    3.5352   -0.7623   -0.0079 N   0  0  0  0  0  3           0  0  0
    3.5486    0.6094   -0.0071 C   0  0  0  0  0  4           0  0  0
    2.2669   -1.1146    0.0000 C   0  0  0  0  0  4           0  0  0
    2.2623    1.1246    0.0085 C   0  0  0  0  0  4           0  0  0
   -2.2782    4.3989    2.6000 C   0  0  0  0  0  4           0  0  0
   -1.3249    3.7307    3.3853 C   0  0  0  0  0  4           0  0  0
   -1.2928    1.2101    3.3729 C   0  0  0  0  0  4           0  0  0
   -0.5412   -0.0000    1.3970 C   0  0  0  0  0  4           0  0  0
   -0.7986    1.2101    2.0617 C   0  0  0  0  0  4           0  0  0
   -1.9710    5.6402    2.0290 C   0  0  0  0  0  4           0  0  0
   -0.0529    4.2961    3.5505 C   0  0  0  0  0  4           0  0  0
   -1.5247   -0.0065    4.0249 C   0  0  0  0  0  4           0  0  0
   -0.7724   -1.2086    2.0665 C   0  0  0  0  0  4           0  0  0
   -1.2630   -1.2106    3.3715 C   0  0  0  0  0  4           0  0  0
   -0.7077    6.2008    2.2142 C   0  0  0  0  0  4           0  0  0
    0.2520    5.5264    2.9664 C   0  0  0  0  0  4           0  0  0
   -3.6120    3.8491    2.2838 C   0  0  0  0  0  4           0  0  0
   -1.5778    2.4562    4.0898 C   0  0  0  0  0  4           0  0  0
    1.7079    2.4956    0.0149 C   0  0  0  0  0  4           0  0  0
    0.0000    0.0000    0.0000 C   0  0  0  0  0  4           0  0  0
    1.7822   -2.5218    0.0006 C   0  0  0  0  0  4           0  0  0
    2.5361   -3.3955   -0.9971 C   0  0  0  0  0  4           0  0  0
    2.4037   -2.8997   -2.4349 C   0  0  0  0  0  4           0  0  0
    3.1550   -3.7699   -3.4315 C   0  0  0  0  0  4           0  0  0
  1  8  1  0     0  0
  2 23  2  0     0  0
  3 24  2  0     0  0
  4 23  1  0     0  0
  5 25  1  0     0  0
  6  9  1  0     0  0
  6 10  1  0     0  0
  6 26  1  0     0  0
  7  8  1  0     0  0
  7  9  2  0     0  0
  8 10  2  0     0  0
  9 27  1  0     0  0
 10 25  1  0     0  0
 11 12  1  0     0  0
 11 16  2  0     0  0
 11 23  1  0     0  0
 12 17  2  0     0  0
 12 24  1  0     0  0
 13 15  2  0     0  0
 13 18  1  0     0  0
 13 24  1  0     0  0
 14 15  1  0     0  0
 14 19  2  0     0  0
 14 26  1  0     0  0
 16 21  1  0     0  0
 17 22  1  0     0  0
 18 20  2  0     0  0
 19 20  1  0     0  0
 21 22  2  0     0  0
 27 28  1  0     0  0
 28 29  1  0     0  0
 29 30  1  0     0  0
M  END
> <standard_type>
pIC50

> <# Confs.>
25

> <canonical_smiles>
ClC(N=C1CCCC)=C(CO)N1CC2=CC=CC(C(C3=CC=CC=C3C(O)=O)=O)=C2

> <standard_relation>
=

> <Publication_ID>
nan

> <predicted_activity_value>
5.721246399047171

> <actual_activity_value>
6.468521082957745

> <Compound>
11

> <standard_units>
nM

> hash
16394989093989855569

$$$$
11_
XXILIB    08252103503D 0   0.00000     0.00000

 30 32  0     1  0            999 V2000
    5.0277    1.4596   -0.0265 Cl  0  0  0  0  0  1           0  0  0
   -3.2979   -4.8861    2.0870 O   0  0  0  0  0  2           0  0  0
   -2.4827   -2.5219    4.9174 O   0  0  0  0  0  2           0  0  0
   -3.2678   -5.6918    4.2074 O   0  0  0  0  0  2           0  0  0
    1.5405    2.8932    1.3688 O   0  0  0  0  0  2           0  0  0
    1.4530   -0.0000    0.0000 N   0  0  0  0  0  3           0  0  0
    3.5352   -0.7623   -0.0079 N   0  0  0  0  0  3           0  0  0
    3.5486    0.6094   -0.0071 C   0  0  0  0  0  4           0  0  0
    2.2669   -1.1146    0.0000 C   0  0  0  0  0  4           0  0  0
    2.2623    1.1246    0.0085 C   0  0  0  0  0  4           0  0  0
   -1.2491   -4.8462    3.2753 C   0  0  0  0  0  4           0  0  0
   -0.7495   -3.6319    3.7732 C   0  0  0  0  0  4           0  0  0
   -1.3167   -1.2101    3.3636 C   0  0  0  0  0  4           0  0  0
   -0.5412    0.0000    1.3970 C   0  0  0  0  0  4           0  0  0
   -0.7986   -1.2101    2.0617 C   0  0  0  0  0  4           0  0  0
   -0.3684   -5.8820    2.9392 C   0  0  0  0  0  4           0  0  0
    0.6304   -3.4874    3.9732 C   0  0  0  0  0  4           0  0  0
   -1.5845    0.0065    4.0017 C   0  0  0  0  0  4           0  0  0
   -0.8212    1.2086    2.0476 C   0  0  0  0  0  4           0  0  0
   -1.3378    1.2106    3.3425 C   0  0  0  0  0  4           0  0  0
    1.0039   -5.7204    3.1269 C   0  0  0  0  0  4           0  0  0
    1.5016   -4.5289    3.6504 C   0  0  0  0  0  4           0  0  0
   -2.6881   -5.1380    3.1163 C   0  0  0  0  0  4           0  0  0
   -1.5890   -2.4562    4.0854 C   0  0  0  0  0  4           0  0  0
    1.7079    2.4956    0.0149 C   0  0  0  0  0  4           0  0  0
    0.0000    0.0000    0.0000 C   0  0  0  0  0  4           0  0  0
    1.7822   -2.5218    0.0006 C   0  0  0  0  0  4           0  0  0
    2.5361   -3.3955   -0.9971 C   0  0  0  0  0  4           0  0  0
    2.4037   -2.8997   -2.4349 C   0  0  0  0  0  4           0  0  0
    3.1550   -3.7699   -3.4315 C   0  0  0  0  0  4           0  0  0
  1  8  1  0     0  0
  2 23  2  0     0  0
  3 24  2  0     0  0
  4 23  1  0     0  0
  5 25  1  0     0  0
  6  9  1  0     0  0
  6 10  1  0     0  0
  6 26  1  0     0  0
  7  8  1  0     0  0
  7  9  2  0     0  0
  8 10  2  0     0  0
  9 27  1  0     0  0
 10 25  1  0     0  0
 11 12  1  0     0  0
 11 16  2  0     0  0
 11 23  1  0     0  0
 12 17  2  0     0  0
 12 24  1  0     0  0
 13 15  2  0     0  0
 13 18  1  0     0  0
 13 24  1  0     0  0
 14 15  1  0     0  0
 14 19  2  0     0  0
 14 26  1  0     0  0
 16 21  1  0     0  0
 17 22  1  0     0  0
 18 20  2  0     0  0
 19 20  1  0     0  0
 21 22  2  0     0  0
 27 28  1  0     0  0
 28 29  1  0     0  0
 29 30  1  0     0  0
M  END
> <standard_type>
pIC50

> <# Confs.>
25

> <canonical_smiles>
ClC(N=C1CCCC)=C(CO)N1CC2=CC=CC(C(C3=CC=CC=C3C(O)=O)=O)=C2

> <standard_relation>
=

> <Publication_ID>
nan

> <predicted_activity_value>
5.721246399047171

> <actual_activity_value>
6.468521082957745

> <Compound>
11

> <standard_units>
nM

> hash
16394989093989855569

$$$$
11_
XXILIB    08252103503D 0   0.00000     0.00000

 30 32  0     1  0            999 V2000
    5.0277   -1.4596    0.0265 Cl  0  0  0  0  0  1           0  0  0
    0.2391    4.7137    3.3960 O   0  0  0  0  0  2           0  0  0
   -0.6636    2.1343    5.6323 O   0  0  0  0  0  2           0  0  0
    1.1149    5.5379    5.3194 O   0  0  0  0  0  2           0  0  0
    1.5405   -2.8932   -1.3688 O   0  0  0  0  0  2           0  0  0
    1.4530    0.0000    0.0000 N   0  0  0  0  0  3           0  0  0
    3.5352    0.7623    0.0079 N   0  0  0  0  0  3           0  0  0
    3.5486   -0.6094    0.0071 C   0  0  0  0  0  4           0  0  0
    2.2669    1.1146    0.0000 C   0  0  0  0  0  4           0  0  0
    2.2623   -1.1246   -0.0085 C   0  0  0  0  0  4           0  0  0
    1.9086    3.4492    4.5028 C   0  0  0  0  0  4           0  0  0
    1.4623    2.1229    4.6194 C   0  0  0  0  0  4           0  0  0
   -0.4984    0.8466    3.6806 C   0  0  0  0  0  4           0  0  0
   -0.5412    0.0000    1.3970 C   0  0  0  0  0  4           0  0  0
   -0.0007    0.8557    2.3708 C   0  0  0  0  0  4           0  0  0
    3.2807    3.7291    4.4902 C   0  0  0  0  0  4           0  0  0
    2.4022    1.0844    4.6749 C   0  0  0  0  0  4           0  0  0
   -1.5377   -0.0273    4.0198 C   0  0  0  0  0  4           0  0  0
   -1.5765   -0.8731    1.7550 C   0  0  0  0  0  4           0  0  0
   -2.0722   -0.8844    3.0581 C   0  0  0  0  0  4           0  0  0
    4.2065    2.6888    4.5630 C   0  0  0  0  0  4           0  0  0
    3.7683    1.3688    4.6469 C   0  0  0  0  0  4           0  0  0
    1.0064    4.6075    4.3417 C   0  0  0  0  0  4           0  0  0
    0.0401    1.7326    4.7165 C   0  0  0  0  0  4           0  0  0
    1.7079   -2.4956   -0.0149 C   0  0  0  0  0  4           0  0  0
    0.0000    0.0000    0.0000 C   0  0  0  0  0  4           0  0  0
    1.7822    2.5218   -0.0006 C   0  0  0  0  0  4           0  0  0
    1.5938    3.0699   -1.4118 C   0  0  0  0  0  4           0  0  0
    1.0966    4.5132   -1.4236 C   0  0  0  0  0  4           0  0  0
   -0.2458    4.6814   -0.7275 C   0  0  0  0  0  4           0  0  0
  1  8  1  0     0  0
  2 23  2  0     0  0
  3 24  2  0     0  0
  4 23  1  0     0  0
  5 25  1  0     0  0
  6  9  1  0     0  0
  6 10  1  0     0  0
  6 26  1  0     0  0
  7  8  1  0     0  0
  7  9  2  0     0  0
  8 10  2  0     0  0
  9 27  1  0     0  0
 10 25  1  0     0  0
 11 12  1  0     0  0
 11 16  2  0     0  0
 11 23  1  0     0  0
 12 17  2  0     0  0
 12 24  1  0     0  0
 13 15  2  0     0  0
 13 18  1  0     0  0
 13 24  1  0     0  0
 14 15  1  0     0  0
 14 19  2  0     0  0
 14 26  1  0     0  0
 16 21  1  0     0  0
 17 22  1  0     0  0
 18 20  2  0     0  0
 19 20  1  0     0  0
 21 22  2  0     0  0
 27 28  1  0     0  0
 28 29  1  0     0  0
 29 30  1  0     0  0
M  END
> <standard_type>
pIC50

> <# Confs.>
25

> <canonical_smiles>
ClC(N=C1CCCC)=C(CO)N1CC2=CC=CC(C(C3=CC=CC=C3C(O)=O)=O)=C2

> <standard_relation>
=

> <Publication_ID>
nan

> <predicted_activity_value>
5.721246399047171

> <actual_activity_value>
6.468521082957745

> <Compound>
11

> <standard_units>
nM

> hash
16394989093989855569

$$$$
11_
XXILIB    08252103503D 0   0.00000     0.00000

 30 32  0     1  0            999 V2000
    5.0277    1.4596   -0.0265 Cl  0  0  0  0  0  1           0  0  0
   -4.0156   -3.2481    1.5750 O   0  0  0  0  0  2           0  0  0
   -2.0412   -2.4422    5.2215 O   0  0  0  0  0  2           0  0  0
   -4.4757   -4.5653    3.3636 O   0  0  0  0  0  2           0  0  0
    1.5405    2.8932    1.3688 O   0  0  0  0  0  2           0  0  0
    1.4530   -0.0000    0.0000 N   0  0  0  0  0  3           0  0  0
    3.5352   -0.7623   -0.0079 N   0  0  0  0  0  3           0  0  0
    3.5486    0.6094   -0.0071 C   0  0  0  0  0  4           0  0  0
    2.2669   -1.1146    0.0000 C   0  0  0  0  0  4           0  0  0
    2.2623    1.1246    0.0085 C   0  0  0  0  0  4           0  0  0
   -2.2286   -4.4203    2.5965 C   0  0  0  0  0  4           0  0  0
   -1.3014   -3.7307    3.3945 C   0  0  0  0  0  4           0  0  0
   -1.3167   -1.2101    3.3636 C   0  0  0  0  0  4           0  0  0
   -0.5412   -0.0000    1.3970 C   0  0  0  0  0  4           0  0  0
   -0.7986   -1.2101    2.0617 C   0  0  0  0  0  4           0  0  0
   -1.8433   -5.5850    1.9209 C   0  0  0  0  0  4           0  0  0
   -0.0063   -4.2458    3.5435 C   0  0  0  0  0  4           0  0  0
   -1.5845    0.0065    4.0017 C   0  0  0  0  0  4           0  0  0
   -0.8212    1.2086    2.0476 C   0  0  0  0  0  4           0  0  0
   -1.3378    1.2106    3.3425 C   0  0  0  0  0  4           0  0  0
   -0.5470   -6.0787    2.0635 C   0  0  0  0  0  4           0  0  0
    0.3671   -5.4153    2.8794 C   0  0  0  0  0  4           0  0  0
   -3.6420   -4.0187    2.4474 C   0  0  0  0  0  4           0  0  0
   -1.5890   -2.4562    4.0854 C   0  0  0  0  0  4           0  0  0
    1.7079    2.4956    0.0149 C   0  0  0  0  0  4           0  0  0
    0.0000    0.0000    0.0000 C   0  0  0  0  0  4           0  0  0
    1.7822   -2.5218    0.0006 C   0  0  0  0  0  4           0  0  0
    2.5361   -3.3955   -0.9971 C   0  0  0  0  0  4           0  0  0
    2.4037   -2.8997   -2.4349 C   0  0  0  0  0  4           0  0  0
    3.1550   -3.7699   -3.4315 C   0  0  0  0  0  4           0  0  0
  1  8  1  0     0  0
  2 23  2  0     0  0
  3 24  2  0     0  0
  4 23  1  0     0  0
  5 25  1  0     0  0
  6  9  1  0     0  0
  6 10  1  0     0  0
  6 26  1  0     0  0
  7  8  1  0     0  0
  7  9  2  0     0  0
  8 10  2  0     0  0
  9 27  1  0     0  0
 10 25  1  0     0  0
 11 12  1  0     0  0
 11 16  2  0     0  0
 11 23  1  0     0  0
 12 17  2  0     0  0
 12 24  1  0     0  0
 13 15  2  0     0  0
 13 18  1  0     0  0
 13 24  1  0     0  0
 14 15  1  0     0  0
 14 19  2  0     0  0
 14 26  1  0     0  0
 16 21  1  0     0  0
 17 22  1  0     0  0
 18 20  2  0     0  0
 19 20  1  0     0  0
 21 22  2  0     0  0
 27 28  1  0     0  0
 28 29  1  0     0  0
 29 30  1  0     0  0
M  END
> <standard_type>
pIC50

> <# Confs.>
25

> <canonical_smiles>
ClC(N=C1CCCC)=C(CO)N1CC2=CC=CC(C(C3=CC=CC=C3C(O)=O)=O)=C2

> <standard_relation>
=

> <Publication_ID>
nan

> <predicted_activity_value>
5.721246399047171

> <actual_activity_value>
6.468521082957745

> <Compound>
11

> <standard_units>
nM

> hash
16394989093989855569

$$$$
11_
XXILIB    08252103503D 0   0.00000     0.00000

 30 32  0     1  0            999 V2000
    5.0277   -1.4596    0.0265 Cl  0  0  0  0  0  1           0  0  0
    0.1630   -4.8001    3.7852 O   0  0  0  0  0  2           0  0  0
   -0.6727   -2.1642    5.6186 O   0  0  0  0  0  2           0  0  0
    1.3767   -5.4603    5.5845 O   0  0  0  0  0  2           0  0  0
    1.5405   -2.8932   -1.3688 O   0  0  0  0  0  2           0  0  0
    1.4530    0.0000    0.0000 N   0  0  0  0  0  3           0  0  0
    3.5352    0.7623    0.0079 N   0  0  0  0  0  3           0  0  0
    3.5486   -0.6094    0.0071 C   0  0  0  0  0  4           0  0  0
    2.2669    1.1146    0.0000 C   0  0  0  0  0  4           0  0  0
    2.2623   -1.1246   -0.0085 C   0  0  0  0  0  4           0  0  0
    1.9413   -3.4138    4.5111 C   0  0  0  0  0  4           0  0  0
    1.4639   -2.0986    4.6306 C   0  0  0  0  0  4           0  0  0
   -0.5153   -0.8647    3.6741 C   0  0  0  0  0  4           0  0  0
   -0.5412    0.0000    1.3970 C   0  0  0  0  0  4           0  0  0
   -0.0007   -0.8557    2.3708 C   0  0  0  0  0  4           0  0  0
    3.3138   -3.6514    4.3656 C   0  0  0  0  0  4           0  0  0
    2.3773   -1.0355    4.6499 C   0  0  0  0  0  4           0  0  0
   -1.5800   -0.0181    4.0034 C   0  0  0  0  0  4           0  0  0
   -1.6110    0.8361    1.7417 C   0  0  0  0  0  4           0  0  0
   -2.1250    0.8277    3.0376 C   0  0  0  0  0  4           0  0  0
    4.2116   -2.5844    4.3695 C   0  0  0  0  0  4           0  0  0
    3.7452   -1.2800    4.5195 C   0  0  0  0  0  4           0  0  0
    1.0769   -4.6096    4.5747 C   0  0  0  0  0  4           0  0  0
    0.0322   -1.7410    4.7134 C   0  0  0  0  0  4           0  0  0
    1.7079   -2.4956   -0.0149 C   0  0  0  0  0  4           0  0  0
    0.0000    0.0000    0.0000 C   0  0  0  0  0  4           0  0  0
    1.7822    2.5218   -0.0006 C   0  0  0  0  0  4           0  0  0
    1.5926    3.0707    1.4101 C   0  0  0  0  0  4           0  0  0
    1.0954    4.5140    1.4207 C   0  0  0  0  0  4           0  0  0
    0.9058    5.0633    2.8269 C   0  0  0  0  0  4           0  0  0
  1  8  1  0     0  0
  2 23  2  0     0  0
  3 24  2  0     0  0
  4 23  1  0     0  0
  5 25  1  0     0  0
  6  9  1  0     0  0
  6 10  1  0     0  0
  6 26  1  0     0  0
  7  8  1  0     0  0
  7  9  2  0     0  0
  8 10  2  0     0  0
  9 27  1  0     0  0
 10 25  1  0     0  0
 11 12  1  0     0  0
 11 16  2  0     0  0
 11 23  1  0     0  0
 12 17  2  0     0  0
 12 24  1  0     0  0
 13 15  2  0     0  0
 13 18  1  0     0  0
 13 24  1  0     0  0
 14 15  1  0     0  0
 14 19  2  0     0  0
 14 26  1  0     0  0
 16 21  1  0     0  0
 17 22  1  0     0  0
 18 20  2  0     0  0
 19 20  1  0     0  0
 21 22  2  0     0  0
 27 28  1  0     0  0
 28 29  1  0     0  0
 29 30  1  0     0  0
M  END
> <standard_type>
pIC50

> <# Confs.>
25

> <canonical_smiles>
ClC(N=C1CCCC)=C(CO)N1CC2=CC=CC(C(C3=CC=CC=C3C(O)=O)=O)=C2

> <standard_relation>
=

> <Publication_ID>
nan

> <predicted_activity_value>
5.721246399047171

> <actual_activity_value>
6.468521082957745

> <Compound>
11

> <standard_units>
nM

> hash
16394989093989855569

$$$$
11_
XXILIB    08252103503D 0   0.00000     0.00000

 30 32  0     1  0            999 V2000
    5.0277   -1.4596    0.0265 Cl  0  0  0  0  0  1           0  0  0
    0.1630   -4.8001    3.7852 O   0  0  0  0  0  2           0  0  0
   -0.6727   -2.1642    5.6186 O   0  0  0  0  0  2           0  0  0
    1.3767   -5.4603    5.5845 O   0  0  0  0  0  2           0  0  0
    1.5405   -2.8932   -1.3688 O   0  0  0  0  0  2           0  0  0
    1.4530    0.0000    0.0000 N   0  0  0  0  0  3           0  0  0
    3.5352    0.7623    0.0079 N   0  0  0  0  0  3           0  0  0
    3.5486   -0.6094    0.0071 C   0  0  0  0  0  4           0  0  0
    2.2669    1.1146    0.0000 C   0  0  0  0  0  4           0  0  0
    2.2623   -1.1246   -0.0085 C   0  0  0  0  0  4           0  0  0
    1.9413   -3.4138    4.5111 C   0  0  0  0  0  4           0  0  0
    1.4639   -2.0986    4.6306 C   0  0  0  0  0  4           0  0  0
   -0.5153   -0.8647    3.6741 C   0  0  0  0  0  4           0  0  0
   -0.5412    0.0000    1.3970 C   0  0  0  0  0  4           0  0  0
   -0.0007   -0.8557    2.3708 C   0  0  0  0  0  4           0  0  0
    3.3138   -3.6514    4.3656 C   0  0  0  0  0  4           0  0  0
    2.3773   -1.0355    4.6499 C   0  0  0  0  0  4           0  0  0
   -1.5800   -0.0181    4.0034 C   0  0  0  0  0  4           0  0  0
   -1.6110    0.8361    1.7417 C   0  0  0  0  0  4           0  0  0
   -2.1250    0.8277    3.0376 C   0  0  0  0  0  4           0  0  0
    4.2116   -2.5844    4.3695 C   0  0  0  0  0  4           0  0  0
    3.7452   -1.2800    4.5195 C   0  0  0  0  0  4           0  0  0
    1.0769   -4.6096    4.5747 C   0  0  0  0  0  4           0  0  0
    0.0322   -1.7410    4.7134 C   0  0  0  0  0  4           0  0  0
    1.7079   -2.4956   -0.0149 C   0  0  0  0  0  4           0  0  0
    0.0000    0.0000    0.0000 C   0  0  0  0  0  4           0  0  0
    1.7822    2.5218   -0.0006 C   0  0  0  0  0  4           0  0  0
    2.5361    3.3955    0.9971 C   0  0  0  0  0  4           0  0  0
    2.4037    2.8997    2.4349 C   0  0  0  0  0  4           0  0  0
    3.1550    3.7699    3.4315 C   0  0  0  0  0  4           0  0  0
  1  8  1  0     0  0
  2 23  2  0     0  0
  3 24  2  0     0  0
  4 23  1  0     0  0
  5 25  1  0     0  0
  6  9  1  0     0  0
  6 10  1  0     0  0
  6 26  1  0     0  0
  7  8  1  0     0  0
  7  9  2  0     0  0
  8 10  2  0     0  0
  9 27  1  0     0  0
 10 25  1  0     0  0
 11 12  1  0     0  0
 11 16  2  0     0  0
 11 23  1  0     0  0
 12 17  2  0     0  0
 12 24  1  0     0  0
 13 15  2  0     0  0
 13 18  1  0     0  0
 13 24  1  0     0  0
 14 15  1  0     0  0
 14 19  2  0     0  0
 14 26  1  0     0  0
 16 21  1  0     0  0
 17 22  1  0     0  0
 18 20  2  0     0  0
 19 20  1  0     0  0
 21 22  2  0     0  0
 27 28  1  0     0  0
 28 29  1  0     0  0
 29 30  1  0     0  0
M  END
> <standard_type>
pIC50

> <# Confs.>
25

> <canonical_smiles>
ClC(N=C1CCCC)=C(CO)N1CC2=CC=CC(C(C3=CC=CC=C3C(O)=O)=O)=C2

> <standard_relation>
=

> <Publication_ID>
nan

> <predicted_activity_value>
5.721246399047171

> <actual_activity_value>
6.468521082957745

> <Compound>
11

> <standard_units>
nM

> hash
16394989093989855569

$$$$
11_
XXILIB    08252103503D 0   0.00000     0.00000

 30 32  0     1  0            999 V2000
    5.0277   -1.4596    0.0265 Cl  0  0  0  0  0  1           0  0  0
   -3.1401    4.8058    1.7752 O   0  0  0  0  0  2           0  0  0
   -2.4575    2.5102    4.9374 O   0  0  0  0  0  2           0  0  0
   -3.4955    5.4780    3.9125 O   0  0  0  0  0  2           0  0  0
    2.4278   -3.2538   -0.9771 O   0  0  0  0  0  2           0  0  0
    1.4530    0.0000    0.0000 N   0  0  0  0  0  3           0  0  0
    3.5352    0.7623    0.0079 N   0  0  0  0  0  3           0  0  0
    3.5486   -0.6094    0.0071 C   0  0  0  0  0  4           0  0  0
    2.2669    1.1146   -0.0000 C   0  0  0  0  0  4           0  0  0
    2.2623   -1.1246   -0.0085 C   0  0  0  0  0  4           0  0  0
   -1.2960    4.8475    3.2614 C   0  0  0  0  0  4           0  0  0
   -0.7656    3.6451    3.7564 C   0  0  0  0  0  4           0  0  0
   -1.2928    1.2101    3.3729 C   0  0  0  0  0  4           0  0  0
   -0.5412    0.0000    1.3970 C   0  0  0  0  0  4           0  0  0
   -0.7986    1.2101    2.0617 C   0  0  0  0  0  4           0  0  0
   -0.4566    5.9470    3.0425 C   0  0  0  0  0  4           0  0  0
    0.6142    3.5447    3.9823 C   0  0  0  0  0  4           0  0  0
   -1.5247   -0.0065    4.0249 C   0  0  0  0  0  4           0  0  0
   -0.7724   -1.2086    2.0665 C   0  0  0  0  0  4           0  0  0
   -1.2630   -1.2106    3.3715 C   0  0  0  0  0  4           0  0  0
    0.9121    5.8403    3.2869 C   0  0  0  0  0  4           0  0  0
    1.4476    4.6395    3.7480 C   0  0  0  0  0  4           0  0  0
   -2.7162    5.0306    2.8997 C   0  0  0  0  0  4           0  0  0
   -1.5778    2.4562    4.0898 C   0  0  0  0  0  4           0  0  0
    1.7079   -2.4956   -0.0149 C   0  0  0  0  0  4           0  0  0
    0.0000    0.0000    0.0000 C   0  0  0  0  0  4           0  0  0
    1.7822    2.5218   -0.0006 C   0  0  0  0  0  4           0  0  0
    2.5369    3.3949   -0.9983 C   0  0  0  0  0  4           0  0  0
    2.0472    4.8408   -1.0068 C   0  0  0  0  0  4           0  0  0
    2.7987    5.7133   -2.0012 C   0  0  0  0  0  4           0  0  0
  1  8  1  0     0  0
  2 23  2  0     0  0
  3 24  2  0     0  0
  4 23  1  0     0  0
  5 25  1  0     0  0
  6  9  1  0     0  0
  6 10  1  0     0  0
  6 26  1  0     0  0
  7  8  1  0     0  0
  7  9  2  0     0  0
  8 10  2  0     0  0
  9 27  1  0     0  0
 10 25  1  0     0  0
 11 12  1  0     0  0
 11 16  2  0     0  0
 11 23  1  0     0  0
 12 17  2  0     0  0
 12 24  1  0     0  0
 13 15  2  0     0  0
 13 18  1  0     0  0
 13 24  1  0     0  0
 14 15  1  0     0  0
 14 19  2  0     0  0
 14 26  1  0     0  0
 16 21  1  0     0  0
 17 22  1  0     0  0
 18 20  2  0     0  0
 19 20  1  0     0  0
 21 22  2  0     0  0
 27 28  1  0     0  0
 28 29  1  0     0  0
 29 30  1  0     0  0
M  END
> <standard_type>
pIC50

> <# Confs.>
25

> <canonical_smiles>
ClC(N=C1CCCC)=C(CO)N1CC2=CC=CC(C(C3=CC=CC=C3C(O)=O)=O)=C2

> <standard_relation>
=

> <Publication_ID>
nan

> <predicted_activity_value>
5.721246399047171

> <actual_activity_value>
6.468521082957745

> <Compound>
11

> <standard_units>
nM

> hash
16394989093989855569

$$$$
11_
XXILIB    08252103503D 0   0.00000     0.00000

 30 32  0     1  0            999 V2000
    5.0277   -1.4596    0.0265 Cl  0  0  0  0  0  1           0  0  0
    0.1630   -4.8001    3.7852 O   0  0  0  0  0  2           0  0  0
   -0.6727   -2.1642    5.6186 O   0  0  0  0  0  2           0  0  0
    1.3767   -5.4603    5.5845 O   0  0  0  0  0  2           0  0  0
    1.5405   -2.8932   -1.3688 O   0  0  0  0  0  2           0  0  0
    1.4530    0.0000    0.0000 N   0  0  0  0  0  3           0  0  0
    3.5352    0.7623    0.0079 N   0  0  0  0  0  3           0  0  0
    3.5486   -0.6094    0.0071 C   0  0  0  0  0  4           0  0  0
    2.2669    1.1146    0.0000 C   0  0  0  0  0  4           0  0  0
    2.2623   -1.1246   -0.0085 C   0  0  0  0  0  4           0  0  0
    1.9413   -3.4138    4.5111 C   0  0  0  0  0  4           0  0  0
    1.4639   -2.0986    4.6306 C   0  0  0  0  0  4           0  0  0
   -0.5153   -0.8647    3.6741 C   0  0  0  0  0  4           0  0  0
   -0.5412    0.0000    1.3970 C   0  0  0  0  0  4           0  0  0
   -0.0007   -0.8557    2.3708 C   0  0  0  0  0  4           0  0  0
    3.3138   -3.6514    4.3656 C   0  0  0  0  0  4           0  0  0
    2.3773   -1.0355    4.6499 C   0  0  0  0  0  4           0  0  0
   -1.5800   -0.0181    4.0034 C   0  0  0  0  0  4           0  0  0
   -1.6110    0.8361    1.7417 C   0  0  0  0  0  4           0  0  0
   -2.1250    0.8277    3.0376 C   0  0  0  0  0  4           0  0  0
    4.2116   -2.5844    4.3695 C   0  0  0  0  0  4           0  0  0
    3.7452   -1.2800    4.5195 C   0  0  0  0  0  4           0  0  0
    1.0769   -4.6096    4.5747 C   0  0  0  0  0  4           0  0  0
    0.0322   -1.7410    4.7134 C   0  0  0  0  0  4           0  0  0
    1.7079   -2.4956   -0.0149 C   0  0  0  0  0  4           0  0  0
    0.0000    0.0000    0.0000 C   0  0  0  0  0  4           0  0  0
    1.7822    2.5218   -0.0006 C   0  0  0  0  0  4           0  0  0
    1.5938    3.0699   -1.4118 C   0  0  0  0  0  4           0  0  0
    1.0966    4.5132   -1.4236 C   0  0  0  0  0  4           0  0  0
    0.9081    5.0617   -2.8302 C   0  0  0  0  0  4           0  0  0
  1  8  1  0     0  0
  2 23  2  0     0  0
  3 24  2  0     0  0
  4 23  1  0     0  0
  5 25  1  0     0  0
  6  9  1  0     0  0
  6 10  1  0     0  0
  6 26  1  0     0  0
  7  8  1  0     0  0
  7  9  2  0     0  0
  8 10  2  0     0  0
  9 27  1  0     0  0
 10 25  1  0     0  0
 11 12  1  0     0  0
 11 16  2  0     0  0
 11 23  1  0     0  0
 12 17  2  0     0  0
 12 24  1  0     0  0
 13 15  2  0     0  0
 13 18  1  0     0  0
 13 24  1  0     0  0
 14 15  1  0     0  0
 14 19  2  0     0  0
 14 26  1  0     0  0
 16 21  1  0     0  0
 17 22  1  0     0  0
 18 20  2  0     0  0
 19 20  1  0     0  0
 21 22  2  0     0  0
 27 28  1  0     0  0
 28 29  1  0     0  0
 29 30  1  0     0  0
M  END
> <standard_type>
pIC50

> <# Confs.>
25

> <canonical_smiles>
ClC(N=C1CCCC)=C(CO)N1CC2=CC=CC(C(C3=CC=CC=C3C(O)=O)=O)=C2

> <standard_relation>
=

> <Publication_ID>
nan

> <predicted_activity_value>
5.721246399047171

> <actual_activity_value>
6.468521082957745

> <Compound>
11

> <standard_units>
nM

> hash
16394989093989855569

$$$$
11_
XXILIB    08252103503D 0   0.00000     0.00000

 30 32  0     1  0            999 V2000
    5.0277    1.4596   -0.0265 Cl  0  0  0  0  0  1           0  0  0
   -4.5675   -2.1559    5.3926 O   0  0  0  0  0  2           0  0  0
   -1.9027   -3.4763    3.4886 O   0  0  0  0  0  2           0  0  0
   -4.3906   -4.2106    6.3376 O   0  0  0  0  0  2           0  0  0
    1.5405    2.8932    1.3688 O   0  0  0  0  0  2           0  0  0
    1.4530   -0.0000    0.0000 N   0  0  0  0  0  3           0  0  0
    3.5352   -0.7623   -0.0079 N   0  0  0  0  0  3           0  0  0
    3.5486    0.6094   -0.0071 C   0  0  0  0  0  4           0  0  0
    2.2669   -1.1146    0.0000 C   0  0  0  0  0  4           0  0  0
    2.2623    1.1246    0.0085 C   0  0  0  0  0  4           0  0  0
   -2.5233   -2.7401    6.4371 C   0  0  0  0  0  4           0  0  0
   -1.4696   -2.4403    5.5585 C   0  0  0  0  0  4           0  0  0
   -1.3167   -1.2101    3.3636 C   0  0  0  0  0  4           0  0  0
   -0.5412    0.0000    1.3970 C   0  0  0  0  0  4           0  0  0
   -0.7986   -1.2101    2.0617 C   0  0  0  0  0  4           0  0  0
   -2.2973   -2.7706    7.8189 C   0  0  0  0  0  4           0  0  0
   -0.2073   -2.1272    6.0815 C   0  0  0  0  0  4           0  0  0
   -1.5845    0.0065    4.0017 C   0  0  0  0  0  4           0  0  0
   -0.8212    1.2086    2.0476 C   0  0  0  0  0  4           0  0  0
   -1.3378    1.2106    3.3425 C   0  0  0  0  0  4           0  0  0
   -1.0329   -2.4737    8.3266 C   0  0  0  0  0  4           0  0  0
    0.0077   -2.1447    7.4604 C   0  0  0  0  0  4           0  0  0
   -3.9113   -2.9905    5.9988 C   0  0  0  0  0  4           0  0  0
   -1.5890   -2.4562    4.0854 C   0  0  0  0  0  4           0  0  0
    1.7079    2.4956    0.0149 C   0  0  0  0  0  4           0  0  0
    0.0000    0.0000    0.0000 C   0  0  0  0  0  4           0  0  0
    1.7822   -2.5218    0.0006 C   0  0  0  0  0  4           0  0  0
    2.5361   -3.3955   -0.9971 C   0  0  0  0  0  4           0  0  0
    2.0464   -4.8414   -1.0045 C   0  0  0  0  0  4           0  0  0
    2.7972   -5.7145   -1.9990 C   0  0  0  0  0  4           0  0  0
  1  8  1  0     0  0
  2 23  2  0     0  0
  3 24  2  0     0  0
  4 23  1  0     0  0
  5 25  1  0     0  0
  6  9  1  0     0  0
  6 10  1  0     0  0
  6 26  1  0     0  0
  7  8  1  0     0  0
  7  9  2  0     0  0
  8 10  2  0     0  0
  9 27  1  0     0  0
 10 25  1  0     0  0
 11 12  1  0     0  0
 11 16  2  0     0  0
 11 23  1  0     0  0
 12 17  2  0     0  0
 12 24  1  0     0  0
 13 15  2  0     0  0
 13 18  1  0     0  0
 13 24  1  0     0  0
 14 15  1  0     0  0
 14 19  2  0     0  0
 14 26  1  0     0  0
 16 21  1  0     0  0
 17 22  1  0     0  0
 18 20  2  0     0  0
 19 20  1  0     0  0
 21 22  2  0     0  0
 27 28  1  0     0  0
 28 29  1  0     0  0
 29 30  1  0     0  0
M  END
> <standard_type>
pIC50

> <# Confs.>
25

> <canonical_smiles>
ClC(N=C1CCCC)=C(CO)N1CC2=CC=CC(C(C3=CC=CC=C3C(O)=O)=O)=C2

> <standard_relation>
=

> <Publication_ID>
nan

> <predicted_activity_value>
5.721246399047171

> <actual_activity_value>
6.468521082957745

> <Compound>
11

> <standard_units>
nM

> hash
16394989093989855569

$$$$
11_
XXILIB    08252103503D 0   0.00000     0.00000

 30 32  0     1  0            999 V2000
    5.0277    1.4596   -0.0265 Cl  0  0  0  0  0  1           0  0  0
   -4.5618    1.9286    2.8700 O   0  0  0  0  0  2           0  0  0
   -1.4778    2.5219    5.3067 O   0  0  0  0  0  2           0  0  0
   -5.3976    3.6431    4.0979 O   0  0  0  0  0  2           0  0  0
    1.5405    2.8932    1.3688 O   0  0  0  0  0  2           0  0  0
    1.4530   -0.0000    0.0000 N   0  0  0  0  0  3           0  0  0
    3.5352   -0.7623   -0.0079 N   0  0  0  0  0  3           0  0  0
    3.5486    0.6094   -0.0071 C   0  0  0  0  0  4           0  0  0
    2.2669   -1.1146    0.0000 C   0  0  0  0  0  4           0  0  0
    2.2623    1.1246    0.0085 C   0  0  0  0  0  4           0  0  0
   -3.3204    3.9431    2.9779 C   0  0  0  0  0  4           0  0  0
   -1.9879    3.6319    3.2935 C   0  0  0  0  0  4           0  0  0
   -1.2928    1.2101    3.3729 C   0  0  0  0  0  4           0  0  0
   -0.5412    0.0000    1.3970 C   0  0  0  0  0  4           0  0  0
   -0.7986    1.2101    2.0617 C   0  0  0  0  0  4           0  0  0
   -3.6194    5.1194    2.2790 C   0  0  0  0  0  4           0  0  0
   -0.9626    4.4845    2.8613 C   0  0  0  0  0  4           0  0  0
   -1.5247   -0.0065    4.0249 C   0  0  0  0  0  4           0  0  0
   -0.7724   -1.2086    2.0665 C   0  0  0  0  0  4           0  0  0
   -1.2630   -1.2106    3.3715 C   0  0  0  0  0  4           0  0  0
   -2.5920    5.9684    1.8689 C   0  0  0  0  0  4           0  0  0
   -1.2660    5.6476    2.1522 C   0  0  0  0  0  4           0  0  0
   -4.4660    3.0687    3.3007 C   0  0  0  0  0  4           0  0  0
   -1.5778    2.4562    4.0898 C   0  0  0  0  0  4           0  0  0
    1.7079    2.4956    0.0149 C   0  0  0  0  0  4           0  0  0
   -0.0000    0.0000    0.0000 C   0  0  0  0  0  4           0  0  0
    1.7822   -2.5218    0.0006 C   0  0  0  0  0  4           0  0  0
    2.5361   -3.3955   -0.9971 C   0  0  0  0  0  4           0  0  0
    2.0464   -4.8414   -1.0045 C   0  0  0  0  0  4           0  0  0
    2.7972   -5.7145   -1.9990 C   0  0  0  0  0  4           0  0  0
  1  8  1  0     0  0
  2 23  2  0     0  0
  3 24  2  0     0  0
  4 23  1  0     0  0
  5 25  1  0     0  0
  6  9  1  0     0  0
  6 10  1  0     0  0
  6 26  1  0     0  0
  7  8  1  0     0  0
  7  9  2  0     0  0
  8 10  2  0     0  0
  9 27  1  0     0  0
 10 25  1  0     0  0
 11 12  1  0     0  0
 11 16  2  0     0  0
 11 23  1  0     0  0
 12 17  2  0     0  0
 12 24  1  0     0  0
 13 15  2  0     0  0
 13 18  1  0     0  0
 13 24  1  0     0  0
 14 15  1  0     0  0
 14 19  2  0     0  0
 14 26  1  0     0  0
 16 21  1  0     0  0
 17 22  1  0     0  0
 18 20  2  0     0  0
 19 20  1  0     0  0
 21 22  2  0     0  0
 27 28  1  0     0  0
 28 29  1  0     0  0
 29 30  1  0     0  0
M  END
> <standard_type>
pIC50

> <# Confs.>
25

> <canonical_smiles>
ClC(N=C1CCCC)=C(CO)N1CC2=CC=CC(C(C3=CC=CC=C3C(O)=O)=O)=C2

> <standard_relation>
=

> <Publication_ID>
nan

> <predicted_activity_value>
5.721246399047171

> <actual_activity_value>
6.468521082957745

> <Compound>
11

> <standard_units>
nM

> hash
16394989093989855569

$$$$
11_
XXILIB    08252103503D 0   0.00000     0.00000

 30 32  0     1  0            999 V2000
    5.0277    1.4596   -0.0265 Cl  0  0  0  0  0  1           0  0  0
    0.1630   -4.8001    3.7852 O   0  0  0  0  0  2           0  0  0
   -0.6727   -2.1642    5.6186 O   0  0  0  0  0  2           0  0  0
    1.3767   -5.4603    5.5845 O   0  0  0  0  0  2           0  0  0
    1.5405    2.8932    1.3688 O   0  0  0  0  0  2           0  0  0
    1.4530   -0.0000    0.0000 N   0  0  0  0  0  3           0  0  0
    3.5352   -0.7623   -0.0079 N   0  0  0  0  0  3           0  0  0
    3.5486    0.6094   -0.0071 C   0  0  0  0  0  4           0  0  0
    2.2669   -1.1146    0.0000 C   0  0  0  0  0  4           0  0  0
    2.2623    1.1246    0.0085 C   0  0  0  0  0  4           0  0  0
    1.9413   -3.4138    4.5111 C   0  0  0  0  0  4           0  0  0
    1.4639   -2.0986    4.6306 C   0  0  0  0  0  4           0  0  0
   -0.5153   -0.8647    3.6741 C   0  0  0  0  0  4           0  0  0
   -0.5412    0.0000    1.3970 C   0  0  0  0  0  4           0  0  0
   -0.0007   -0.8557    2.3708 C   0  0  0  0  0  4           0  0  0
    3.3138   -3.6514    4.3656 C   0  0  0  0  0  4           0  0  0
    2.3773   -1.0355    4.6499 C   0  0  0  0  0  4           0  0  0
   -1.5800   -0.0181    4.0034 C   0  0  0  0  0  4           0  0  0
   -1.6110    0.8361    1.7417 C   0  0  0  0  0  4           0  0  0
   -2.1250    0.8277    3.0376 C   0  0  0  0  0  4           0  0  0
    4.2116   -2.5844    4.3695 C   0  0  0  0  0  4           0  0  0
    3.7452   -1.2800    4.5195 C   0  0  0  0  0  4           0  0  0
    1.0769   -4.6096    4.5747 C   0  0  0  0  0  4           0  0  0
    0.0322   -1.7410    4.7134 C   0  0  0  0  0  4           0  0  0
    1.7079    2.4956    0.0149 C   0  0  0  0  0  4           0  0  0
    0.0000    0.0000    0.0000 C   0  0  0  0  0  4           0  0  0
    1.7822   -2.5218    0.0006 C   0  0  0  0  0  4           0  0  0
    2.5361   -3.3955   -0.9971 C   0  0  0  0  0  4           0  0  0
    2.0464   -4.8414   -1.0045 C   0  0  0  0  0  4           0  0  0
    2.7972   -5.7145   -1.9990 C   0  0  0  0  0  4           0  0  0
  1  8  1  0     0  0
  2 23  2  0     0  0
  3 24  2  0     0  0
  4 23  1  0     0  0
  5 25  1  0     0  0
  6  9  1  0     0  0
  6 10  1  0     0  0
  6 26  1  0     0  0
  7  8  1  0     0  0
  7  9  2  0     0  0
  8 10  2  0     0  0
  9 27  1  0     0  0
 10 25  1  0     0  0
 11 12  1  0     0  0
 11 16  2  0     0  0
 11 23  1  0     0  0
 12 17  2  0     0  0
 12 24  1  0     0  0
 13 15  2  0     0  0
 13 18  1  0     0  0
 13 24  1  0     0  0
 14 15  1  0     0  0
 14 19  2  0     0  0
 14 26  1  0     0  0
 16 21  1  0     0  0
 17 22  1  0     0  0
 18 20  2  0     0  0
 19 20  1  0     0  0
 21 22  2  0     0  0
 27 28  1  0     0  0
 28 29  1  0     0  0
 29 30  1  0     0  0
M  END
> <standard_type>
pIC50

> <# Confs.>
25

> <canonical_smiles>
ClC(N=C1CCCC)=C(CO)N1CC2=CC=CC(C(C3=CC=CC=C3C(O)=O)=O)=C2

> <standard_relation>
=

> <Publication_ID>
nan

> <predicted_activity_value>
5.721246399047171

> <actual_activity_value>
6.468521082957745

> <Compound>
11

> <standard_units>
nM

> hash
16394989093989855569

$$$$
11_
XXILIB    08252103503D 0   0.00000     0.00000

 30 32  0     1  0            999 V2000
    5.0277    1.4596   -0.0265 Cl  0  0  0  0  0  1           0  0  0
   -4.5618    1.9286    2.8700 O   0  0  0  0  0  2           0  0  0
   -1.4778    2.5219    5.3067 O   0  0  0  0  0  2           0  0  0
   -5.3976    3.6431    4.0979 O   0  0  0  0  0  2           0  0  0
    1.5405    2.8932    1.3688 O   0  0  0  0  0  2           0  0  0
    1.4530   -0.0000    0.0000 N   0  0  0  0  0  3           0  0  0
    3.5352   -0.7623   -0.0079 N   0  0  0  0  0  3           0  0  0
    3.5486    0.6094   -0.0071 C   0  0  0  0  0  4           0  0  0
    2.2669   -1.1146    0.0000 C   0  0  0  0  0  4           0  0  0
    2.2623    1.1246    0.0085 C   0  0  0  0  0  4           0  0  0
   -3.3204    3.9431    2.9779 C   0  0  0  0  0  4           0  0  0
   -1.9879    3.6319    3.2935 C   0  0  0  0  0  4           0  0  0
   -1.2928    1.2101    3.3729 C   0  0  0  0  0  4           0  0  0
   -0.5412    0.0000    1.3970 C   0  0  0  0  0  4           0  0  0
   -0.7986    1.2101    2.0617 C   0  0  0  0  0  4           0  0  0
   -3.6194    5.1194    2.2790 C   0  0  0  0  0  4           0  0  0
   -0.9626    4.4845    2.8613 C   0  0  0  0  0  4           0  0  0
   -1.5247   -0.0065    4.0249 C   0  0  0  0  0  4           0  0  0
   -0.7724   -1.2086    2.0665 C   0  0  0  0  0  4           0  0  0
   -1.2630   -1.2106    3.3715 C   0  0  0  0  0  4           0  0  0
   -2.5920    5.9684    1.8689 C   0  0  0  0  0  4           0  0  0
   -1.2660    5.6476    2.1522 C   0  0  0  0  0  4           0  0  0
   -4.4660    3.0687    3.3007 C   0  0  0  0  0  4           0  0  0
   -1.5778    2.4562    4.0898 C   0  0  0  0  0  4           0  0  0
    1.7079    2.4956    0.0149 C   0  0  0  0  0  4           0  0  0
   -0.0000    0.0000    0.0000 C   0  0  0  0  0  4           0  0  0
    1.7822   -2.5218    0.0006 C   0  0  0  0  0  4           0  0  0
    2.5361   -3.3955   -0.9971 C   0  0  0  0  0  4           0  0  0
    2.4037   -2.8997   -2.4349 C   0  0  0  0  0  4           0  0  0
    3.1550   -3.7699   -3.4315 C   0  0  0  0  0  4           0  0  0
  1  8  1  0     0  0
  2 23  2  0     0  0
  3 24  2  0     0  0
  4 23  1  0     0  0
  5 25  1  0     0  0
  6  9  1  0     0  0
  6 10  1  0     0  0
  6 26  1  0     0  0
  7  8  1  0     0  0
  7  9  2  0     0  0
  8 10  2  0     0  0
  9 27  1  0     0  0
 10 25  1  0     0  0
 11 12  1  0     0  0
 11 16  2  0     0  0
 11 23  1  0     0  0
 12 17  2  0     0  0
 12 24  1  0     0  0
 13 15  2  0     0  0
 13 18  1  0     0  0
 13 24  1  0     0  0
 14 15  1  0     0  0
 14 19  2  0     0  0
 14 26  1  0     0  0
 16 21  1  0     0  0
 17 22  1  0     0  0
 18 20  2  0     0  0
 19 20  1  0     0  0
 21 22  2  0     0  0
 27 28  1  0     0  0
 28 29  1  0     0  0
 29 30  1  0     0  0
M  END
> <standard_type>
pIC50

> <# Confs.>
25

> <canonical_smiles>
ClC(N=C1CCCC)=C(CO)N1CC2=CC=CC(C(C3=CC=CC=C3C(O)=O)=O)=C2

> <standard_relation>
=

> <Publication_ID>
nan

> <predicted_activity_value>
5.721246399047171

> <actual_activity_value>
6.468521082957745

> <Compound>
11

> <standard_units>
nM

> hash
16394989093989855569

$$$$
11_
XXILIB    08252103503D 0   0.00000     0.00000

 30 32  0     1  0            999 V2000
    5.0277    1.4596   -0.0265 Cl  0  0  0  0  0  1           0  0  0
   -4.5675   -2.1559    5.3926 O   0  0  0  0  0  2           0  0  0
   -1.9027   -3.4763    3.4886 O   0  0  0  0  0  2           0  0  0
   -4.3906   -4.2106    6.3376 O   0  0  0  0  0  2           0  0  0
    1.5405    2.8932    1.3688 O   0  0  0  0  0  2           0  0  0
    1.4530   -0.0000    0.0000 N   0  0  0  0  0  3           0  0  0
    3.5352   -0.7623   -0.0079 N   0  0  0  0  0  3           0  0  0
    3.5486    0.6094   -0.0071 C   0  0  0  0  0  4           0  0  0
    2.2669   -1.1146    0.0000 C   0  0  0  0  0  4           0  0  0
    2.2623    1.1246    0.0085 C   0  0  0  0  0  4           0  0  0
   -2.5233   -2.7401    6.4371 C   0  0  0  0  0  4           0  0  0
   -1.4696   -2.4403    5.5585 C   0  0  0  0  0  4           0  0  0
   -1.3167   -1.2101    3.3636 C   0  0  0  0  0  4           0  0  0
   -0.5412    0.0000    1.3970 C   0  0  0  0  0  4           0  0  0
   -0.7986   -1.2101    2.0617 C   0  0  0  0  0  4           0  0  0
   -2.2973   -2.7706    7.8189 C   0  0  0  0  0  4           0  0  0
   -0.2073   -2.1272    6.0815 C   0  0  0  0  0  4           0  0  0
   -1.5845    0.0065    4.0017 C   0  0  0  0  0  4           0  0  0
   -0.8212    1.2086    2.0476 C   0  0  0  0  0  4           0  0  0
   -1.3378    1.2106    3.3425 C   0  0  0  0  0  4           0  0  0
   -1.0329   -2.4737    8.3266 C   0  0  0  0  0  4           0  0  0
    0.0077   -2.1447    7.4604 C   0  0  0  0  0  4           0  0  0
   -3.9113   -2.9905    5.9988 C   0  0  0  0  0  4           0  0  0
   -1.5890   -2.4562    4.0854 C   0  0  0  0  0  4           0  0  0
    1.7079    2.4956    0.0149 C   0  0  0  0  0  4           0  0  0
    0.0000    0.0000    0.0000 C   0  0  0  0  0  4           0  0  0
    1.7822   -2.5218    0.0006 C   0  0  0  0  0  4           0  0  0
    2.5361   -3.3955   -0.9971 C   0  0  0  0  0  4           0  0  0
    2.4037   -2.8997   -2.4349 C   0  0  0  0  0  4           0  0  0
    3.1550   -3.7699   -3.4315 C   0  0  0  0  0  4           0  0  0
  1  8  1  0     0  0
  2 23  2  0     0  0
  3 24  2  0     0  0
  4 23  1  0     0  0
  5 25  1  0     0  0
  6  9  1  0     0  0
  6 10  1  0     0  0
  6 26  1  0     0  0
  7  8  1  0     0  0
  7  9  2  0     0  0
  8 10  2  0     0  0
  9 27  1  0     0  0
 10 25  1  0     0  0
 11 12  1  0     0  0
 11 16  2  0     0  0
 11 23  1  0     0  0
 12 17  2  0     0  0
 12 24  1  0     0  0
 13 15  2  0     0  0
 13 18  1  0     0  0
 13 24  1  0     0  0
 14 15  1  0     0  0
 14 19  2  0     0  0
 14 26  1  0     0  0
 16 21  1  0     0  0
 17 22  1  0     0  0
 18 20  2  0     0  0
 19 20  1  0     0  0
 21 22  2  0     0  0
 27 28  1  0     0  0
 28 29  1  0     0  0
 29 30  1  0     0  0
M  END
> <standard_type>
pIC50

> <# Confs.>
25

> <canonical_smiles>
ClC(N=C1CCCC)=C(CO)N1CC2=CC=CC(C(C3=CC=CC=C3C(O)=O)=O)=C2

> <standard_relation>
=

> <Publication_ID>
nan

> <predicted_activity_value>
5.721246399047171

> <actual_activity_value>
6.468521082957745

> <Compound>
11

> <standard_units>
nM

> hash
16394989093989855569

$$$$
11_
XXILIB    08252103503D 0   0.00000     0.00000

 30 32  0     1  0            999 V2000
    5.0277   -1.4596    0.0265 Cl  0  0  0  0  0  1           0  0  0
   -3.8187    3.1587    1.2963 O   0  0  0  0  0  2           0  0  0
   -2.0089    2.4422    5.2340 O   0  0  0  0  0  2           0  0  0
   -4.5779    4.1868    3.1705 O   0  0  0  0  0  2           0  0  0
    2.4278   -3.2538   -0.9771 O   0  0  0  0  0  2           0  0  0
    1.4530    0.0000    0.0000 N   0  0  0  0  0  3           0  0  0
    3.5352    0.7623    0.0079 N   0  0  0  0  0  3           0  0  0
    3.5486   -0.6094    0.0071 C   0  0  0  0  0  4           0  0  0
    2.2669    1.1146   -0.0000 C   0  0  0  0  0  4           0  0  0
    2.2623   -1.1246   -0.0085 C   0  0  0  0  0  4           0  0  0
   -2.2782    4.3989    2.6000 C   0  0  0  0  0  4           0  0  0
   -1.3249    3.7307    3.3853 C   0  0  0  0  0  4           0  0  0
   -1.2928    1.2101    3.3729 C   0  0  0  0  0  4           0  0  0
   -0.5412   -0.0000    1.3970 C   0  0  0  0  0  4           0  0  0
   -0.7986    1.2101    2.0617 C   0  0  0  0  0  4           0  0  0
   -1.9710    5.6402    2.0290 C   0  0  0  0  0  4           0  0  0
   -0.0529    4.2961    3.5505 C   0  0  0  0  0  4           0  0  0
   -1.5247   -0.0065    4.0249 C   0  0  0  0  0  4           0  0  0
   -0.7724   -1.2086    2.0665 C   0  0  0  0  0  4           0  0  0
   -1.2630   -1.2106    3.3715 C   0  0  0  0  0  4           0  0  0
   -0.7077    6.2008    2.2142 C   0  0  0  0  0  4           0  0  0
    0.2520    5.5264    2.9664 C   0  0  0  0  0  4           0  0  0
   -3.6120    3.8491    2.2838 C   0  0  0  0  0  4           0  0  0
   -1.5778    2.4562    4.0898 C   0  0  0  0  0  4           0  0  0
    1.7079   -2.4956   -0.0149 C   0  0  0  0  0  4           0  0  0
    0.0000    0.0000    0.0000 C   0  0  0  0  0  4           0  0  0
    1.7822    2.5218   -0.0006 C   0  0  0  0  0  4           0  0  0
    2.5369    3.3949   -0.9983 C   0  0  0  0  0  4           0  0  0
    2.0472    4.8408   -1.0068 C   0  0  0  0  0  4           0  0  0
    2.7987    5.7133   -2.0012 C   0  0  0  0  0  4           0  0  0
  1  8  1  0     0  0
  2 23  2  0     0  0
  3 24  2  0     0  0
  4 23  1  0     0  0
  5 25  1  0     0  0
  6  9  1  0     0  0
  6 10  1  0     0  0
  6 26  1  0     0  0
  7  8  1  0     0  0
  7  9  2  0     0  0
  8 10  2  0     0  0
  9 27  1  0     0  0
 10 25  1  0     0  0
 11 12  1  0     0  0
 11 16  2  0     0  0
 11 23  1  0     0  0
 12 17  2  0     0  0
 12 24  1  0     0  0
 13 15  2  0     0  0
 13 18  1  0     0  0
 13 24  1  0     0  0
 14 15  1  0     0  0
 14 19  2  0     0  0
 14 26  1  0     0  0
 16 21  1  0     0  0
 17 22  1  0     0  0
 18 20  2  0     0  0
 19 20  1  0     0  0
 21 22  2  0     0  0
 27 28  1  0     0  0
 28 29  1  0     0  0
 29 30  1  0     0  0
M  END
> <standard_type>
pIC50

> <# Confs.>
25

> <canonical_smiles>
ClC(N=C1CCCC)=C(CO)N1CC2=CC=CC(C(C3=CC=CC=C3C(O)=O)=O)=C2

> <standard_relation>
=

> <Publication_ID>
nan

> <predicted_activity_value>
5.721246399047171

> <actual_activity_value>
6.468521082957745

> <Compound>
11

> <standard_units>
nM

> hash
16394989093989855569

$$$$
11_
XXILIB    08252103503D 0   0.00000     0.00000

 30 32  0     1  0            999 V2000
    5.0277    1.4596   -0.0265 Cl  0  0  0  0  0  1           0  0  0
    1.1248   -4.8058    3.4273 O   0  0  0  0  0  2           0  0  0
   -1.5099   -2.5102    5.3045 O   0  0  0  0  0  2           0  0  0
   -0.0522   -5.4780    5.2463 O   0  0  0  0  0  2           0  0  0
    1.5405    2.8932    1.3688 O   0  0  0  0  0  2           0  0  0
    1.4530   -0.0000    0.0000 N   0  0  0  0  0  3           0  0  0
    3.5352   -0.7623   -0.0079 N   0  0  0  0  0  3           0  0  0
    3.5486    0.6094   -0.0071 C   0  0  0  0  0  4           0  0  0
    2.2669   -1.1146    0.0000 C   0  0  0  0  0  4           0  0  0
    2.2623    1.1246    0.0085 C   0  0  0  0  0  4           0  0  0
   -1.2392   -4.8475    3.2834 C   0  0  0  0  0  4           0  0  0
   -1.9647   -3.6451    3.2919 C   0  0  0  0  0  4           0  0  0
   -1.3167   -1.2101    3.3636 C   0  0  0  0  0  4           0  0  0
   -0.5412    0.0000    1.3970 C   0  0  0  0  0  4           0  0  0
   -0.7986   -1.2101    2.0617 C   0  0  0  0  0  4           0  0  0
   -1.7121   -5.9470    2.5562 C   0  0  0  0  0  4           0  0  0
   -3.1366   -3.5447    2.5294 C   0  0  0  0  0  4           0  0  0
   -1.5845    0.0065    4.0017 C   0  0  0  0  0  4           0  0  0
   -0.8212    1.2086    2.0476 C   0  0  0  0  0  4           0  0  0
   -1.3378    1.2106    3.3425 C   0  0  0  0  0  4           0  0  0
   -2.8883   -5.8403    1.8148 C   0  0  0  0  0  4           0  0  0
   -3.5946   -4.6395    1.7948 C   0  0  0  0  0  4           0  0  0
    0.0541   -5.0306    3.9728 C   0  0  0  0  0  4           0  0  0
   -1.5890   -2.4562    4.0854 C   0  0  0  0  0  4           0  0  0
    1.7079    2.4956    0.0149 C   0  0  0  0  0  4           0  0  0
    0.0000   -0.0000    0.0000 C   0  0  0  0  0  4           0  0  0
    1.7822   -2.5218    0.0006 C   0  0  0  0  0  4           0  0  0
    2.5361   -3.3955   -0.9971 C   0  0  0  0  0  4           0  0  0
    2.0464   -4.8414   -1.0045 C   0  0  0  0  0  4           0  0  0
    2.7972   -5.7145   -1.9990 C   0  0  0  0  0  4           0  0  0
  1  8  1  0     0  0
  2 23  2  0     0  0
  3 24  2  0     0  0
  4 23  1  0     0  0
  5 25  1  0     0  0
  6  9  1  0     0  0
  6 10  1  0     0  0
  6 26  1  0     0  0
  7  8  1  0     0  0
  7  9  2  0     0  0
  8 10  2  0     0  0
  9 27  1  0     0  0
 10 25  1  0     0  0
 11 12  1  0     0  0
 11 16  2  0     0  0
 11 23  1  0     0  0
 12 17  2  0     0  0
 12 24  1  0     0  0
 13 15  2  0     0  0
 13 18  1  0     0  0
 13 24  1  0     0  0
 14 15  1  0     0  0
 14 19  2  0     0  0
 14 26  1  0     0  0
 16 21  1  0     0  0
 17 22  1  0     0  0
 18 20  2  0     0  0
 19 20  1  0     0  0
 21 22  2  0     0  0
 27 28  1  0     0  0
 28 29  1  0     0  0
 29 30  1  0     0  0
M  END
> <standard_type>
pIC50

> <# Confs.>
25

> <canonical_smiles>
ClC(N=C1CCCC)=C(CO)N1CC2=CC=CC(C(C3=CC=CC=C3C(O)=O)=O)=C2

> <standard_relation>
=

> <Publication_ID>
nan

> <predicted_activity_value>
5.721246399047171

> <actual_activity_value>
6.468521082957745

> <Compound>
11

> <standard_units>
nM

> hash
16394989093989855569

$$$$
11_
XXILIB    08252103503D 0   0.00000     0.00000

 30 32  0     1  0            999 V2000
    5.0277    1.4596   -0.0265 Cl  0  0  0  0  0  1           0  0  0
   -3.8187    3.1587    1.2963 O   0  0  0  0  0  2           0  0  0
   -2.0089    2.4422    5.2340 O   0  0  0  0  0  2           0  0  0
   -4.5779    4.1868    3.1705 O   0  0  0  0  0  2           0  0  0
    1.5405    2.8932    1.3688 O   0  0  0  0  0  2           0  0  0
    1.4530   -0.0000    0.0000 N   0  0  0  0  0  3           0  0  0
    3.5352   -0.7623   -0.0079 N   0  0  0  0  0  3           0  0  0
    3.5486    0.6094   -0.0071 C   0  0  0  0  0  4           0  0  0
    2.2669   -1.1146    0.0000 C   0  0  0  0  0  4           0  0  0
    2.2623    1.1246    0.0085 C   0  0  0  0  0  4           0  0  0
   -2.2782    4.3989    2.6000 C   0  0  0  0  0  4           0  0  0
   -1.3249    3.7307    3.3853 C   0  0  0  0  0  4           0  0  0
   -1.2928    1.2101    3.3729 C   0  0  0  0  0  4           0  0  0
   -0.5412   -0.0000    1.3970 C   0  0  0  0  0  4           0  0  0
   -0.7986    1.2101    2.0617 C   0  0  0  0  0  4           0  0  0
   -1.9710    5.6402    2.0290 C   0  0  0  0  0  4           0  0  0
   -0.0529    4.2961    3.5505 C   0  0  0  0  0  4           0  0  0
   -1.5247   -0.0065    4.0249 C   0  0  0  0  0  4           0  0  0
   -0.7724   -1.2086    2.0665 C   0  0  0  0  0  4           0  0  0
   -1.2630   -1.2106    3.3715 C   0  0  0  0  0  4           0  0  0
   -0.7077    6.2008    2.2142 C   0  0  0  0  0  4           0  0  0
    0.2520    5.5264    2.9664 C   0  0  0  0  0  4           0  0  0
   -3.6120    3.8491    2.2838 C   0  0  0  0  0  4           0  0  0
   -1.5778    2.4562    4.0898 C   0  0  0  0  0  4           0  0  0
    1.7079    2.4956    0.0149 C   0  0  0  0  0  4           0  0  0
    0.0000    0.0000    0.0000 C   0  0  0  0  0  4           0  0  0
    1.7822   -2.5218    0.0006 C   0  0  0  0  0  4           0  0  0
    2.5369   -3.3949    0.9983 C   0  0  0  0  0  4           0  0  0
    2.0472   -4.8408    1.0068 C   0  0  0  0  0  4           0  0  0
    2.7987   -5.7133    2.0012 C   0  0  0  0  0  4           0  0  0
  1  8  1  0     0  0
  2 23  2  0     0  0
  3 24  2  0     0  0
  4 23  1  0     0  0
  5 25  1  0     0  0
  6  9  1  0     0  0
  6 10  1  0     0  0
  6 26  1  0     0  0
  7  8  1  0     0  0
  7  9  2  0     0  0
  8 10  2  0     0  0
  9 27  1  0     0  0
 10 25  1  0     0  0
 11 12  1  0     0  0
 11 16  2  0     0  0
 11 23  1  0     0  0
 12 17  2  0     0  0
 12 24  1  0     0  0
 13 15  2  0     0  0
 13 18  1  0     0  0
 13 24  1  0     0  0
 14 15  1  0     0  0
 14 19  2  0     0  0
 14 26  1  0     0  0
 16 21  1  0     0  0
 17 22  1  0     0  0
 18 20  2  0     0  0
 19 20  1  0     0  0
 21 22  2  0     0  0
 27 28  1  0     0  0
 28 29  1  0     0  0
 29 30  1  0     0  0
M  END
> <standard_type>
pIC50

> <# Confs.>
25

> <canonical_smiles>
ClC(N=C1CCCC)=C(CO)N1CC2=CC=CC(C(C3=CC=CC=C3C(O)=O)=O)=C2

> <standard_relation>
=

> <Publication_ID>
nan

> <predicted_activity_value>
5.721246399047171

> <actual_activity_value>
6.468521082957745

> <Compound>
11

> <standard_units>
nM

> hash
16394989093989855569

$$$$
11_
XXILIB    08252103503D 0   0.00000     0.00000

 30 32  0     1  0            999 V2000
    5.0277    1.4596   -0.0265 Cl  0  0  0  0  0  1           0  0  0
    0.1630   -4.8001    3.7852 O   0  0  0  0  0  2           0  0  0
   -0.6727   -2.1642    5.6186 O   0  0  0  0  0  2           0  0  0
    1.3767   -5.4603    5.5845 O   0  0  0  0  0  2           0  0  0
    1.5405    2.8932    1.3688 O   0  0  0  0  0  2           0  0  0
    1.4530   -0.0000    0.0000 N   0  0  0  0  0  3           0  0  0
    3.5352   -0.7623   -0.0079 N   0  0  0  0  0  3           0  0  0
    3.5486    0.6094   -0.0071 C   0  0  0  0  0  4           0  0  0
    2.2669   -1.1146    0.0000 C   0  0  0  0  0  4           0  0  0
    2.2623    1.1246    0.0085 C   0  0  0  0  0  4           0  0  0
    1.9413   -3.4138    4.5111 C   0  0  0  0  0  4           0  0  0
    1.4639   -2.0986    4.6306 C   0  0  0  0  0  4           0  0  0
   -0.5153   -0.8647    3.6741 C   0  0  0  0  0  4           0  0  0
   -0.5412    0.0000    1.3970 C   0  0  0  0  0  4           0  0  0
   -0.0007   -0.8557    2.3708 C   0  0  0  0  0  4           0  0  0
    3.3138   -3.6514    4.3656 C   0  0  0  0  0  4           0  0  0
    2.3773   -1.0355    4.6499 C   0  0  0  0  0  4           0  0  0
   -1.5800   -0.0181    4.0034 C   0  0  0  0  0  4           0  0  0
   -1.6110    0.8361    1.7417 C   0  0  0  0  0  4           0  0  0
   -2.1250    0.8277    3.0376 C   0  0  0  0  0  4           0  0  0
    4.2116   -2.5844    4.3695 C   0  0  0  0  0  4           0  0  0
    3.7452   -1.2800    4.5195 C   0  0  0  0  0  4           0  0  0
    1.0769   -4.6096    4.5747 C   0  0  0  0  0  4           0  0  0
    0.0322   -1.7410    4.7134 C   0  0  0  0  0  4           0  0  0
    1.7079    2.4956    0.0149 C   0  0  0  0  0  4           0  0  0
    0.0000    0.0000    0.0000 C   0  0  0  0  0  4           0  0  0
    1.7822   -2.5218    0.0006 C   0  0  0  0  0  4           0  0  0
    2.5361   -3.3955   -0.9971 C   0  0  0  0  0  4           0  0  0
    2.4037   -2.8997   -2.4349 C   0  0  0  0  0  4           0  0  0
    3.1550   -3.7699   -3.4315 C   0  0  0  0  0  4           0  0  0
  1  8  1  0     0  0
  2 23  2  0     0  0
  3 24  2  0     0  0
  4 23  1  0     0  0
  5 25  1  0     0  0
  6  9  1  0     0  0
  6 10  1  0     0  0
  6 26  1  0     0  0
  7  8  1  0     0  0
  7  9  2  0     0  0
  8 10  2  0     0  0
  9 27  1  0     0  0
 10 25  1  0     0  0
 11 12  1  0     0  0
 11 16  2  0     0  0
 11 23  1  0     0  0
 12 17  2  0     0  0
 12 24  1  0     0  0
 13 15  2  0     0  0
 13 18  1  0     0  0
 13 24  1  0     0  0
 14 15  1  0     0  0
 14 19  2  0     0  0
 14 26  1  0     0  0
 16 21  1  0     0  0
 17 22  1  0     0  0
 18 20  2  0     0  0
 19 20  1  0     0  0
 21 22  2  0     0  0
 27 28  1  0     0  0
 28 29  1  0     0  0
 29 30  1  0     0  0
M  END
> <standard_type>
pIC50

> <# Confs.>
25

> <canonical_smiles>
ClC(N=C1CCCC)=C(CO)N1CC2=CC=CC(C(C3=CC=CC=C3C(O)=O)=O)=C2

> <standard_relation>
=

> <Publication_ID>
nan

> <predicted_activity_value>
5.721246399047171

> <actual_activity_value>
6.468521082957745

> <Compound>
11

> <standard_units>
nM

> hash
16394989093989855569

$$$$
11_
XXILIB    08252103503D 0   0.00000     0.00000

 30 32  0     1  0            999 V2000
    5.0277   -1.4596    0.0265 Cl  0  0  0  0  0  1           0  0  0
    0.1630   -4.8001    3.7852 O   0  0  0  0  0  2           0  0  0
   -0.6727   -2.1642    5.6186 O   0  0  0  0  0  2           0  0  0
    1.3767   -5.4603    5.5845 O   0  0  0  0  0  2           0  0  0
    1.5405   -2.8932   -1.3688 O   0  0  0  0  0  2           0  0  0
    1.4530    0.0000    0.0000 N   0  0  0  0  0  3           0  0  0
    3.5352    0.7623    0.0079 N   0  0  0  0  0  3           0  0  0
    3.5486   -0.6094    0.0071 C   0  0  0  0  0  4           0  0  0
    2.2669    1.1146    0.0000 C   0  0  0  0  0  4           0  0  0
    2.2623   -1.1246   -0.0085 C   0  0  0  0  0  4           0  0  0
    1.9413   -3.4138    4.5111 C   0  0  0  0  0  4           0  0  0
    1.4639   -2.0986    4.6306 C   0  0  0  0  0  4           0  0  0
   -0.5153   -0.8647    3.6741 C   0  0  0  0  0  4           0  0  0
   -0.5412    0.0000    1.3970 C   0  0  0  0  0  4           0  0  0
   -0.0007   -0.8557    2.3708 C   0  0  0  0  0  4           0  0  0
    3.3138   -3.6514    4.3656 C   0  0  0  0  0  4           0  0  0
    2.3773   -1.0355    4.6499 C   0  0  0  0  0  4           0  0  0
   -1.5800   -0.0181    4.0034 C   0  0  0  0  0  4           0  0  0
   -1.6110    0.8361    1.7417 C   0  0  0  0  0  4           0  0  0
   -2.1250    0.8277    3.0376 C   0  0  0  0  0  4           0  0  0
    4.2116   -2.5844    4.3695 C   0  0  0  0  0  4           0  0  0
    3.7452   -1.2800    4.5195 C   0  0  0  0  0  4           0  0  0
    1.0769   -4.6096    4.5747 C   0  0  0  0  0  4           0  0  0
    0.0322   -1.7410    4.7134 C   0  0  0  0  0  4           0  0  0
    1.7079   -2.4956   -0.0149 C   0  0  0  0  0  4           0  0  0
    0.0000    0.0000    0.0000 C   0  0  0  0  0  4           0  0  0
    1.7822    2.5218   -0.0006 C   0  0  0  0  0  4           0  0  0
    2.9272    3.5298   -0.0004 C   0  0  0  0  0  4           0  0  0
    2.4406    4.9768   -0.0011 C   0  0  0  0  0  4           0  0  0
    3.5812    5.9837   -0.0009 C   0  0  0  0  0  4           0  0  0
  1  8  1  0     0  0
  2 23  2  0     0  0
  3 24  2  0     0  0
  4 23  1  0     0  0
  5 25  1  0     0  0
  6  9  1  0     0  0
  6 10  1  0     0  0
  6 26  1  0     0  0
  7  8  1  0     0  0
  7  9  2  0     0  0
  8 10  2  0     0  0
  9 27  1  0     0  0
 10 25  1  0     0  0
 11 12  1  0     0  0
 11 16  2  0     0  0
 11 23  1  0     0  0
 12 17  2  0     0  0
 12 24  1  0     0  0
 13 15  2  0     0  0
 13 18  1  0     0  0
 13 24  1  0     0  0
 14 15  1  0     0  0
 14 19  2  0     0  0
 14 26  1  0     0  0
 16 21  1  0     0  0
 17 22  1  0     0  0
 18 20  2  0     0  0
 19 20  1  0     0  0
 21 22  2  0     0  0
 27 28  1  0     0  0
 28 29  1  0     0  0
 29 30  1  0     0  0
M  END
> <standard_type>
pIC50

> <# Confs.>
25

> <canonical_smiles>
ClC(N=C1CCCC)=C(CO)N1CC2=CC=CC(C(C3=CC=CC=C3C(O)=O)=O)=C2

> <standard_relation>
=

> <Publication_ID>
nan

> <predicted_activity_value>
5.721246399047171

> <actual_activity_value>
6.468521082957745

> <Compound>
11

> <standard_units>
nM

> hash
16394989093989855569

$$$$
11_
XXILIB    08252103503D 0   0.00000     0.00000

 30 32  0     1  0            999 V2000
    5.0277   -1.4596    0.0265 Cl  0  0  0  0  0  1           0  0  0
   -3.1401    4.8058    1.7752 O   0  0  0  0  0  2           0  0  0
   -2.4575    2.5102    4.9374 O   0  0  0  0  0  2           0  0  0
   -3.4955    5.4780    3.9125 O   0  0  0  0  0  2           0  0  0
    2.4278   -3.2538   -0.9771 O   0  0  0  0  0  2           0  0  0
    1.4530    0.0000    0.0000 N   0  0  0  0  0  3           0  0  0
    3.5352    0.7623    0.0079 N   0  0  0  0  0  3           0  0  0
    3.5486   -0.6094    0.0071 C   0  0  0  0  0  4           0  0  0
    2.2669    1.1146   -0.0000 C   0  0  0  0  0  4           0  0  0
    2.2623   -1.1246   -0.0085 C   0  0  0  0  0  4           0  0  0
   -1.2960    4.8475    3.2614 C   0  0  0  0  0  4           0  0  0
   -0.7656    3.6451    3.7564 C   0  0  0  0  0  4           0  0  0
   -1.2928    1.2101    3.3729 C   0  0  0  0  0  4           0  0  0
   -0.5412    0.0000    1.3970 C   0  0  0  0  0  4           0  0  0
   -0.7986    1.2101    2.0617 C   0  0  0  0  0  4           0  0  0
   -0.4566    5.9470    3.0425 C   0  0  0  0  0  4           0  0  0
    0.6142    3.5447    3.9823 C   0  0  0  0  0  4           0  0  0
   -1.5247   -0.0065    4.0249 C   0  0  0  0  0  4           0  0  0
   -0.7724   -1.2086    2.0665 C   0  0  0  0  0  4           0  0  0
   -1.2630   -1.2106    3.3715 C   0  0  0  0  0  4           0  0  0
    0.9121    5.8403    3.2869 C   0  0  0  0  0  4           0  0  0
    1.4476    4.6395    3.7480 C   0  0  0  0  0  4           0  0  0
   -2.7162    5.0306    2.8997 C   0  0  0  0  0  4           0  0  0
   -1.5778    2.4562    4.0898 C   0  0  0  0  0  4           0  0  0
    1.7079   -2.4956   -0.0149 C   0  0  0  0  0  4           0  0  0
    0.0000    0.0000    0.0000 C   0  0  0  0  0  4           0  0  0
    1.7822    2.5218   -0.0006 C   0  0  0  0  0  4           0  0  0
    2.5369    3.3949   -0.9983 C   0  0  0  0  0  4           0  0  0
    2.4056    2.8983   -2.4358 C   0  0  0  0  0  4           0  0  0
    3.1577    3.7679   -3.4323 C   0  0  0  0  0  4           0  0  0
  1  8  1  0     0  0
  2 23  2  0     0  0
  3 24  2  0     0  0
  4 23  1  0     0  0
  5 25  1  0     0  0
  6  9  1  0     0  0
  6 10  1  0     0  0
  6 26  1  0     0  0
  7  8  1  0     0  0
  7  9  2  0     0  0
  8 10  2  0     0  0
  9 27  1  0     0  0
 10 25  1  0     0  0
 11 12  1  0     0  0
 11 16  2  0     0  0
 11 23  1  0     0  0
 12 17  2  0     0  0
 12 24  1  0     0  0
 13 15  2  0     0  0
 13 18  1  0     0  0
 13 24  1  0     0  0
 14 15  1  0     0  0
 14 19  2  0     0  0
 14 26  1  0     0  0
 16 21  1  0     0  0
 17 22  1  0     0  0
 18 20  2  0     0  0
 19 20  1  0     0  0
 21 22  2  0     0  0
 27 28  1  0     0  0
 28 29  1  0     0  0
 29 30  1  0     0  0
M  END
> <standard_type>
pIC50

> <# Confs.>
25

> <canonical_smiles>
ClC(N=C1CCCC)=C(CO)N1CC2=CC=CC(C(C3=CC=CC=C3C(O)=O)=O)=C2

> <standard_relation>
=

> <Publication_ID>
nan

> <predicted_activity_value>
5.721246399047171

> <actual_activity_value>
6.468521082957745

> <Compound>
11

> <standard_units>
nM

> hash
16394989093989855569

$$$$
11_
XXILIB    08252103503D 0   0.00000     0.00000

 30 32  0     1  0            999 V2000
    5.0277   -1.4596    0.0265 Cl  0  0  0  0  0  1           0  0  0
    0.1630   -4.8001    3.7852 O   0  0  0  0  0  2           0  0  0
   -0.6727   -2.1642    5.6186 O   0  0  0  0  0  2           0  0  0
    1.3767   -5.4603    5.5845 O   0  0  0  0  0  2           0  0  0
    1.5405   -2.8932   -1.3688 O   0  0  0  0  0  2           0  0  0
    1.4530    0.0000    0.0000 N   0  0  0  0  0  3           0  0  0
    3.5352    0.7623    0.0079 N   0  0  0  0  0  3           0  0  0
    3.5486   -0.6094    0.0071 C   0  0  0  0  0  4           0  0  0
    2.2669    1.1146    0.0000 C   0  0  0  0  0  4           0  0  0
    2.2623   -1.1246   -0.0085 C   0  0  0  0  0  4           0  0  0
    1.9413   -3.4138    4.5111 C   0  0  0  0  0  4           0  0  0
    1.4639   -2.0986    4.6306 C   0  0  0  0  0  4           0  0  0
   -0.5153   -0.8647    3.6741 C   0  0  0  0  0  4           0  0  0
   -0.5412    0.0000    1.3970 C   0  0  0  0  0  4           0  0  0
   -0.0007   -0.8557    2.3708 C   0  0  0  0  0  4           0  0  0
    3.3138   -3.6514    4.3656 C   0  0  0  0  0  4           0  0  0
    2.3773   -1.0355    4.6499 C   0  0  0  0  0  4           0  0  0
   -1.5800   -0.0181    4.0034 C   0  0  0  0  0  4           0  0  0
   -1.6110    0.8361    1.7417 C   0  0  0  0  0  4           0  0  0
   -2.1250    0.8277    3.0376 C   0  0  0  0  0  4           0  0  0
    4.2116   -2.5844    4.3695 C   0  0  0  0  0  4           0  0  0
    3.7452   -1.2800    4.5195 C   0  0  0  0  0  4           0  0  0
    1.0769   -4.6096    4.5747 C   0  0  0  0  0  4           0  0  0
    0.0322   -1.7410    4.7134 C   0  0  0  0  0  4           0  0  0
    1.7079   -2.4956   -0.0149 C   0  0  0  0  0  4           0  0  0
    0.0000    0.0000    0.0000 C   0  0  0  0  0  4           0  0  0
    1.7822    2.5218   -0.0006 C   0  0  0  0  0  4           0  0  0
    1.5938    3.0699   -1.4118 C   0  0  0  0  0  4           0  0  0
    2.8854    3.0637   -2.2254 C   0  0  0  0  0  4           0  0  0
    2.6996    3.6100   -3.6332 C   0  0  0  0  0  4           0  0  0
  1  8  1  0     0  0
  2 23  2  0     0  0
  3 24  2  0     0  0
  4 23  1  0     0  0
  5 25  1  0     0  0
  6  9  1  0     0  0
  6 10  1  0     0  0
  6 26  1  0     0  0
  7  8  1  0     0  0
  7  9  2  0     0  0
  8 10  2  0     0  0
  9 27  1  0     0  0
 10 25  1  0     0  0
 11 12  1  0     0  0
 11 16  2  0     0  0
 11 23  1  0     0  0
 12 17  2  0     0  0
 12 24  1  0     0  0
 13 15  2  0     0  0
 13 18  1  0     0  0
 13 24  1  0     0  0
 14 15  1  0     0  0
 14 19  2  0     0  0
 14 26  1  0     0  0
 16 21  1  0     0  0
 17 22  1  0     0  0
 18 20  2  0     0  0
 19 20  1  0     0  0
 21 22  2  0     0  0
 27 28  1  0     0  0
 28 29  1  0     0  0
 29 30  1  0     0  0
M  END
> <standard_type>
pIC50

> <# Confs.>
25

> <canonical_smiles>
ClC(N=C1CCCC)=C(CO)N1CC2=CC=CC(C(C3=CC=CC=C3C(O)=O)=O)=C2

> <standard_relation>
=

> <Publication_ID>
nan

> <predicted_activity_value>
5.721246399047171

> <actual_activity_value>
6.468521082957745

> <Compound>
11

> <standard_units>
nM

> hash
16394989093989855569

$$$$
12_
XXILIB    08252103503D 0   0.00000     0.00000

 29 31  0     1  0            999 V2000
    5.0124    1.4761   -0.0112 Cl  0  0  0  0  0  1           0  0  0
   -1.5523   -2.3881    4.0035 O   0  0  0  0  0  2           0  0  0
   -2.6786   -4.2800    1.9328 O   0  0  0  0  0  2           0  0  0
   -2.6389   -5.9428    3.5157 O   0  0  0  0  0  2           0  0  0
    0.7468    2.6048   -0.9349 O   0  0  0  0  0  2           0  0  0
    1.4518   -0.0000    0.0000 N   0  0  0  0  0  3           0  0  0
    3.5350   -0.7729   -0.0069 N   0  0  0  0  0  3           0  0  0
    3.5513    0.5972   -0.0012 C   0  0  0  0  0  4           0  0  0
   -0.5524   -3.3293    3.9486 C   0  0  0  0  0  4           0  0  0
   -1.3349   -1.1953    3.3504 C   0  0  0  0  0  4           0  0  0
    2.2633   -1.1181   -0.0000 C   0  0  0  0  0  4           0  0  0
    2.2688    1.1136    0.0114 C   0  0  0  0  0  4           0  0  0
   -0.8183   -4.5851    3.3797 C   0  0  0  0  0  4           0  0  0
   -0.5421    0.0000    1.3968 C   0  0  0  0  0  4           0  0  0
   -0.7994   -1.2075    2.0598 C   0  0  0  0  0  4           0  0  0
    0.7069   -3.0660    4.5049 C   0  0  0  0  0  4           0  0  0
   -1.5914    0.0087    4.0065 C   0  0  0  0  0  4           0  0  0
    0.1916   -5.5572    3.3515 C   0  0  0  0  0  4           0  0  0
   -0.8253    1.2085    2.0512 C   0  0  0  0  0  4           0  0  0
   -1.3411    1.2112    3.3497 C   0  0  0  0  0  4           0  0  0
    1.7063   -4.0374    4.4653 C   0  0  0  0  0  4           0  0  0
    1.4499   -5.2790    3.8880 C   0  0  0  0  0  4           0  0  0
   -2.1388   -4.8881    2.8380 C   0  0  0  0  0  4           0  0  0
    1.7894    2.5112    0.0246 C   0  0  0  0  0  4           0  0  0
    0.0000    0.0000   -0.0000 C   0  0  0  0  0  4           0  0  0
    1.7676   -2.5213   -0.0019 C   0  0  0  0  0  4           0  0  0
    2.5159   -3.4005   -0.9993 C   0  0  0  0  0  4           0  0  0
    1.9885   -4.8320   -0.9807 C   0  0  0  0  0  4           0  0  0
    2.7314   -5.7120   -1.9734 C   0  0  0  0  0  4           0  0  0
  1  8  1  0     0  0
  2  9  1  0     0  0
  2 10  1  0     0  0
  3 23  2  0     0  0
  4 23  1  0     0  0
  5 24  1  0     0  0
  6 11  1  0     0  0
  6 12  1  0     0  0
  6 25  1  0     0  0
  7  8  1  0     0  0
  7 11  2  0     0  0
  8 12  2  0     0  0
  9 13  1  0     0  0
  9 16  2  0     0  0
 10 15  2  0     0  0
 10 17  1  0     0  0
 11 26  1  0     0  0
 12 24  1  0     0  0
 13 18  2  0     0  0
 13 23  1  0     0  0
 14 15  1  0     0  0
 14 19  2  0     0  0
 14 25  1  0     0  0
 16 21  1  0     0  0
 17 20  2  0     0  0
 18 22  1  0     0  0
 19 20  1  0     0  0
 21 22  2  0     0  0
 26 27  1  0     0  0
 27 28  1  0     0  0
 28 29  1  0     0  0
M  END
> <standard_type>
pIC50

> <# Confs.>
25

> <canonical_smiles>
ClC(N=C1CCCC)=C(CO)N1CC2=CC=CC(OC3=CC=CC=C3C(O)=O)=C2

> <standard_relation>
=

> <Publication_ID>
nan

> <predicted_activity_value>
7.3979400086720375

> <actual_activity_value>
6.3979400086720375

> <Compound>
12

> <standard_units>
nM

> hash
1572487227986651878

$$$$
12_
XXILIB    08252103503D 0   0.00000     0.00000

 29 31  0     1  0            999 V2000
    5.0124   -1.4761    0.0112 Cl  0  0  0  0  0  1           0  0  0
   -1.5549    2.3881    4.0025 O   0  0  0  0  0  2           0  0  0
   -2.9438    4.1322    1.9728 O   0  0  0  0  0  2           0  0  0
   -2.9167    5.8553    3.4901 O   0  0  0  0  0  2           0  0  0
    0.7454   -2.5862   -0.9841 O   0  0  0  0  0  2           0  0  0
    1.4518   -0.0000   -0.0000 N   0  0  0  0  0  3           0  0  0
    3.5350    0.7729    0.0069 N   0  0  0  0  0  3           0  0  0
    3.5513   -0.5972    0.0012 C   0  0  0  0  0  4           0  0  0
   -0.6342    3.4004    3.8749 C   0  0  0  0  0  4           0  0  0
   -1.2748    1.1953    3.3737 C   0  0  0  0  0  4           0  0  0
    2.2633    1.1181    0.0000 C   0  0  0  0  0  4           0  0  0
    2.2688   -1.1136   -0.0114 C   0  0  0  0  0  4           0  0  0
   -1.0213    4.6137    3.2840 C   0  0  0  0  0  4           0  0  0
   -0.5421    0.0000    1.3968 C   0  0  0  0  0  4           0  0  0
   -0.7994    1.2075    2.0598 C   0  0  0  0  0  4           0  0  0
    0.6954    3.2106    4.2760 C   0  0  0  0  0  4           0  0  0
   -1.5280   -0.0087    4.0311 C   0  0  0  0  0  4           0  0  0
   -0.0749    5.6360    3.1244 C   0  0  0  0  0  4           0  0  0
   -0.7745   -1.2085    2.0709 C   0  0  0  0  0  4           0  0  0
   -1.2697   -1.2112    3.3774 C   0  0  0  0  0  4           0  0  0
    1.6267    4.2362    4.1192 C   0  0  0  0  0  4           0  0  0
    1.2419    5.4466    3.5469 C   0  0  0  0  0  4           0  0  0
   -2.3911    4.8079    2.8203 C   0  0  0  0  0  4           0  0  0
    1.7894   -2.5112   -0.0246 C   0  0  0  0  0  4           0  0  0
    0.0000    0.0000    0.0000 C   0  0  0  0  0  4           0  0  0
    1.7676    2.5213    0.0019 C   0  0  0  0  0  4           0  0  0
    2.5135    3.4023   -0.9959 C   0  0  0  0  0  4           0  0  0
    1.9861    4.8337   -0.9734 C   0  0  0  0  0  4           0  0  0
    2.7266    5.7155   -1.9663 C   0  0  0  0  0  4           0  0  0
  1  8  1  0     0  0
  2  9  1  0     0  0
  2 10  1  0     0  0
  3 23  2  0     0  0
  4 23  1  0     0  0
  5 24  1  0     0  0
  6 11  1  0     0  0
  6 12  1  0     0  0
  6 25  1  0     0  0
  7  8  1  0     0  0
  7 11  2  0     0  0
  8 12  2  0     0  0
  9 13  1  0     0  0
  9 16  2  0     0  0
 10 15  2  0     0  0
 10 17  1  0     0  0
 11 26  1  0     0  0
 12 24  1  0     0  0
 13 18  2  0     0  0
 13 23  1  0     0  0
 14 15  1  0     0  0
 14 19  2  0     0  0
 14 25  1  0     0  0
 16 21  1  0     0  0
 17 20  2  0     0  0
 18 22  1  0     0  0
 19 20  1  0     0  0
 21 22  2  0     0  0
 26 27  1  0     0  0
 27 28  1  0     0  0
 28 29  1  0     0  0
M  END
> <standard_type>
pIC50

> <# Confs.>
25

> <canonical_smiles>
ClC(N=C1CCCC)=C(CO)N1CC2=CC=CC(OC3=CC=CC=C3C(O)=O)=C2

> <standard_relation>
=

> <Publication_ID>
nan

> <predicted_activity_value>
7.3979400086720375

> <actual_activity_value>
6.3979400086720375

> <Compound>
12

> <standard_units>
nM

> hash
1572487227986651878

$$$$
12_
XXILIB    08252103503D 0   0.00000     0.00000

 29 31  0     1  0            999 V2000
    5.0124   -1.4761    0.0112 Cl  0  0  0  0  0  1           0  0  0
   -1.5523   -2.3881    4.0035 O   0  0  0  0  0  2           0  0  0
   -2.6786   -4.2800    1.9328 O   0  0  0  0  0  2           0  0  0
   -2.6389   -5.9428    3.5157 O   0  0  0  0  0  2           0  0  0
    0.7454   -2.5862   -0.9841 O   0  0  0  0  0  2           0  0  0
    1.4518   -0.0000   -0.0000 N   0  0  0  0  0  3           0  0  0
    3.5350    0.7729    0.0069 N   0  0  0  0  0  3           0  0  0
    3.5513   -0.5972    0.0012 C   0  0  0  0  0  4           0  0  0
   -0.5524   -3.3293    3.9486 C   0  0  0  0  0  4           0  0  0
   -1.3349   -1.1953    3.3504 C   0  0  0  0  0  4           0  0  0
    2.2633    1.1181    0.0000 C   0  0  0  0  0  4           0  0  0
    2.2688   -1.1136   -0.0114 C   0  0  0  0  0  4           0  0  0
   -0.8183   -4.5851    3.3797 C   0  0  0  0  0  4           0  0  0
   -0.5421    0.0000    1.3968 C   0  0  0  0  0  4           0  0  0
   -0.7994   -1.2075    2.0598 C   0  0  0  0  0  4           0  0  0
    0.7069   -3.0660    4.5049 C   0  0  0  0  0  4           0  0  0
   -1.5914    0.0087    4.0065 C   0  0  0  0  0  4           0  0  0
    0.1916   -5.5572    3.3515 C   0  0  0  0  0  4           0  0  0
   -0.8253    1.2085    2.0512 C   0  0  0  0  0  4           0  0  0
   -1.3411    1.2112    3.3497 C   0  0  0  0  0  4           0  0  0
    1.7063   -4.0374    4.4653 C   0  0  0  0  0  4           0  0  0
    1.4499   -5.2790    3.8880 C   0  0  0  0  0  4           0  0  0
   -2.1388   -4.8881    2.8380 C   0  0  0  0  0  4           0  0  0
    1.7894   -2.5112   -0.0246 C   0  0  0  0  0  4           0  0  0
    0.0000    0.0000   -0.0000 C   0  0  0  0  0  4           0  0  0
    1.7676    2.5213    0.0019 C   0  0  0  0  0  4           0  0  0
    2.5135    3.4023   -0.9959 C   0  0  0  0  0  4           0  0  0
    1.9861    4.8337   -0.9734 C   0  0  0  0  0  4           0  0  0
    2.7266    5.7155   -1.9663 C   0  0  0  0  0  4           0  0  0
  1  8  1  0     0  0
  2  9  1  0     0  0
  2 10  1  0     0  0
  3 23  2  0     0  0
  4 23  1  0     0  0
  5 24  1  0     0  0
  6 11  1  0     0  0
  6 12  1  0     0  0
  6 25  1  0     0  0
  7  8  1  0     0  0
  7 11  2  0     0  0
  8 12  2  0     0  0
  9 13  1  0     0  0
  9 16  2  0     0  0
 10 15  2  0     0  0
 10 17  1  0     0  0
 11 26  1  0     0  0
 12 24  1  0     0  0
 13 18  2  0     0  0
 13 23  1  0     0  0
 14 15  1  0     0  0
 14 19  2  0     0  0
 14 25  1  0     0  0
 16 21  1  0     0  0
 17 20  2  0     0  0
 18 22  1  0     0  0
 19 20  1  0     0  0
 21 22  2  0     0  0
 26 27  1  0     0  0
 27 28  1  0     0  0
 28 29  1  0     0  0
M  END
> <standard_type>
pIC50

> <# Confs.>
25

> <canonical_smiles>
ClC(N=C1CCCC)=C(CO)N1CC2=CC=CC(OC3=CC=CC=C3C(O)=O)=C2

> <standard_relation>
=

> <Publication_ID>
nan

> <predicted_activity_value>
7.3979400086720375

> <actual_activity_value>
6.3979400086720375

> <Compound>
12

> <standard_units>
nM

> hash
1572487227986651878

$$$$
12_
XXILIB    08252103503D 0   0.00000     0.00000

 29 31  0     1  0            999 V2000
    5.0124    1.4761   -0.0112 Cl  0  0  0  0  0  1           0  0  0
   -1.5549    2.3881    4.0025 O   0  0  0  0  0  2           0  0  0
   -2.9438    4.1322    1.9728 O   0  0  0  0  0  2           0  0  0
   -2.9167    5.8553    3.4901 O   0  0  0  0  0  2           0  0  0
    0.7468    2.6048   -0.9349 O   0  0  0  0  0  2           0  0  0
    1.4518   -0.0000    0.0000 N   0  0  0  0  0  3           0  0  0
    3.5350   -0.7729   -0.0069 N   0  0  0  0  0  3           0  0  0
    3.5513    0.5972   -0.0012 C   0  0  0  0  0  4           0  0  0
   -0.6342    3.4004    3.8749 C   0  0  0  0  0  4           0  0  0
   -1.2748    1.1953    3.3737 C   0  0  0  0  0  4           0  0  0
    2.2633   -1.1181   -0.0000 C   0  0  0  0  0  4           0  0  0
    2.2688    1.1136    0.0114 C   0  0  0  0  0  4           0  0  0
   -1.0213    4.6137    3.2840 C   0  0  0  0  0  4           0  0  0
   -0.5421    0.0000    1.3968 C   0  0  0  0  0  4           0  0  0
   -0.7994    1.2075    2.0598 C   0  0  0  0  0  4           0  0  0
    0.6954    3.2106    4.2760 C   0  0  0  0  0  4           0  0  0
   -1.5280   -0.0087    4.0311 C   0  0  0  0  0  4           0  0  0
   -0.0749    5.6360    3.1244 C   0  0  0  0  0  4           0  0  0
   -0.7745   -1.2085    2.0709 C   0  0  0  0  0  4           0  0  0
   -1.2697   -1.2112    3.3774 C   0  0  0  0  0  4           0  0  0
    1.6267    4.2362    4.1192 C   0  0  0  0  0  4           0  0  0
    1.2419    5.4466    3.5469 C   0  0  0  0  0  4           0  0  0
   -2.3911    4.8079    2.8203 C   0  0  0  0  0  4           0  0  0
    1.7894    2.5112    0.0246 C   0  0  0  0  0  4           0  0  0
    0.0000    0.0000    0.0000 C   0  0  0  0  0  4           0  0  0
    1.7676   -2.5213   -0.0019 C   0  0  0  0  0  4           0  0  0
    2.5159   -3.4005   -0.9993 C   0  0  0  0  0  4           0  0  0
    1.9885   -4.8320   -0.9807 C   0  0  0  0  0  4           0  0  0
    2.7314   -5.7120   -1.9734 C   0  0  0  0  0  4           0  0  0
  1  8  1  0     0  0
  2  9  1  0     0  0
  2 10  1  0     0  0
  3 23  2  0     0  0
  4 23  1  0     0  0
  5 24  1  0     0  0
  6 11  1  0     0  0
  6 12  1  0     0  0
  6 25  1  0     0  0
  7  8  1  0     0  0
  7 11  2  0     0  0
  8 12  2  0     0  0
  9 13  1  0     0  0
  9 16  2  0     0  0
 10 15  2  0     0  0
 10 17  1  0     0  0
 11 26  1  0     0  0
 12 24  1  0     0  0
 13 18  2  0     0  0
 13 23  1  0     0  0
 14 15  1  0     0  0
 14 19  2  0     0  0
 14 25  1  0     0  0
 16 21  1  0     0  0
 17 20  2  0     0  0
 18 22  1  0     0  0
 19 20  1  0     0  0
 21 22  2  0     0  0
 26 27  1  0     0  0
 27 28  1  0     0  0
 28 29  1  0     0  0
M  END
> <standard_type>
pIC50

> <# Confs.>
25

> <canonical_smiles>
ClC(N=C1CCCC)=C(CO)N1CC2=CC=CC(OC3=CC=CC=C3C(O)=O)=C2

> <standard_relation>
=

> <Publication_ID>
nan

> <predicted_activity_value>
7.3979400086720375

> <actual_activity_value>
6.3979400086720375

> <Compound>
12

> <standard_units>
nM

> hash
1572487227986651878

$$$$
12_
XXILIB    08252103503D 0   0.00000     0.00000

 29 31  0     1  0            999 V2000
    5.0124   -1.4761    0.0112 Cl  0  0  0  0  0  1           0  0  0
   -1.5549    2.3881    4.0025 O   0  0  0  0  0  2           0  0  0
   -3.3816    4.7482    3.5244 O   0  0  0  0  0  2           0  0  0
   -2.3544    5.0572    1.4943 O   0  0  0  0  0  2           0  0  0
    0.7454   -2.5862   -0.9841 O   0  0  0  0  0  2           0  0  0
    1.4518   -0.0000   -0.0000 N   0  0  0  0  0  3           0  0  0
    3.5350    0.7729    0.0069 N   0  0  0  0  0  3           0  0  0
    3.5513   -0.5972    0.0012 C   0  0  0  0  0  4           0  0  0
   -0.6342    3.4004    3.8749 C   0  0  0  0  0  4           0  0  0
   -1.2748    1.1953    3.3737 C   0  0  0  0  0  4           0  0  0
    2.2633    1.1181    0.0000 C   0  0  0  0  0  4           0  0  0
    2.2688   -1.1136   -0.0114 C   0  0  0  0  0  4           0  0  0
   -1.0213    4.6137    3.2840 C   0  0  0  0  0  4           0  0  0
   -0.5421    0.0000    1.3968 C   0  0  0  0  0  4           0  0  0
   -0.7994    1.2075    2.0598 C   0  0  0  0  0  4           0  0  0
    0.6954    3.2106    4.2760 C   0  0  0  0  0  4           0  0  0
   -1.5280   -0.0087    4.0311 C   0  0  0  0  0  4           0  0  0
   -0.0749    5.6360    3.1244 C   0  0  0  0  0  4           0  0  0
   -0.7745   -1.2085    2.0709 C   0  0  0  0  0  4           0  0  0
   -1.2697   -1.2112    3.3774 C   0  0  0  0  0  4           0  0  0
    1.6267    4.2362    4.1192 C   0  0  0  0  0  4           0  0  0
    1.2419    5.4466    3.5469 C   0  0  0  0  0  4           0  0  0
   -2.3911    4.8079    2.8203 C   0  0  0  0  0  4           0  0  0
    1.7894   -2.5112   -0.0246 C   0  0  0  0  0  4           0  0  0
    0.0000    0.0000    0.0000 C   0  0  0  0  0  4           0  0  0
    1.7676    2.5213    0.0019 C   0  0  0  0  0  4           0  0  0
    2.5135    3.4023   -0.9959 C   0  0  0  0  0  4           0  0  0
    1.9861    4.8337   -0.9734 C   0  0  0  0  0  4           0  0  0
    2.7266    5.7155   -1.9663 C   0  0  0  0  0  4           0  0  0
  1  8  1  0     0  0
  2  9  1  0     0  0
  2 10  1  0     0  0
  3 23  2  0     0  0
  4 23  1  0     0  0
  5 24  1  0     0  0
  6 11  1  0     0  0
  6 12  1  0     0  0
  6 25  1  0     0  0
  7  8  1  0     0  0
  7 11  2  0     0  0
  8 12  2  0     0  0
  9 13  1  0     0  0
  9 16  2  0     0  0
 10 15  2  0     0  0
 10 17  1  0     0  0
 11 26  1  0     0  0
 12 24  1  0     0  0
 13 18  2  0     0  0
 13 23  1  0     0  0
 14 15  1  0     0  0
 14 19  2  0     0  0
 14 25  1  0     0  0
 16 21  1  0     0  0
 17 20  2  0     0  0
 18 22  1  0     0  0
 19 20  1  0     0  0
 21 22  2  0     0  0
 26 27  1  0     0  0
 27 28  1  0     0  0
 28 29  1  0     0  0
M  END
> <standard_type>
pIC50

> <# Confs.>
25

> <canonical_smiles>
ClC(N=C1CCCC)=C(CO)N1CC2=CC=CC(OC3=CC=CC=C3C(O)=O)=C2

> <standard_relation>
=

> <Publication_ID>
nan

> <predicted_activity_value>
7.3979400086720375

> <actual_activity_value>
6.3979400086720375

> <Compound>
12

> <standard_units>
nM

> hash
1572487227986651878

$$$$
12_
XXILIB    08252103503D 0   0.00000     0.00000

 29 31  0     1  0            999 V2000
    5.0124    1.4761   -0.0112 Cl  0  0  0  0  0  1           0  0  0
   -1.5549    2.3881    4.0025 O   0  0  0  0  0  2           0  0  0
    0.6734    4.2800    3.2338 O   0  0  0  0  0  2           0  0  0
   -0.4237    5.9428    4.3755 O   0  0  0  0  0  2           0  0  0
    0.7468    2.6048   -0.9349 O   0  0  0  0  0  2           0  0  0
    1.4518   -0.0000    0.0000 N   0  0  0  0  0  3           0  0  0
    3.5350   -0.7729   -0.0069 N   0  0  0  0  0  3           0  0  0
    3.5513    0.5972   -0.0012 C   0  0  0  0  0  4           0  0  0
   -2.2560    3.3293    3.2874 C   0  0  0  0  0  4           0  0  0
   -1.2748    1.1953    3.3737 C   0  0  0  0  0  4           0  0  0
    2.2633   -1.1181   -0.0000 C   0  0  0  0  0  4           0  0  0
    2.2688    1.1136    0.0114 C   0  0  0  0  0  4           0  0  0
   -1.6759    4.5851    3.0468 C   0  0  0  0  0  4           0  0  0
   -0.5421    0.0000    1.3968 C   0  0  0  0  0  4           0  0  0
   -0.7994    1.2075    2.0598 C   0  0  0  0  0  4           0  0  0
   -3.5609    3.0660    2.8486 C   0  0  0  0  0  4           0  0  0
   -1.5280   -0.0087    4.0311 C   0  0  0  0  0  4           0  0  0
   -2.4024    5.5572    2.3447 C   0  0  0  0  0  4           0  0  0
   -0.7745   -1.2085    2.0709 C   0  0  0  0  0  4           0  0  0
   -1.2697   -1.2112    3.3774 C   0  0  0  0  0  4           0  0  0
   -4.2718    4.0374    2.1452 C   0  0  0  0  0  4           0  0  0
   -3.6932    5.2790    1.8919 C   0  0  0  0  0  4           0  0  0
   -0.3357    4.8881    3.5378 C   0  0  0  0  0  4           0  0  0
    1.7894    2.5112    0.0246 C   0  0  0  0  0  4           0  0  0
    0.0000    0.0000   -0.0000 C   0  0  0  0  0  4           0  0  0
    1.7676   -2.5213   -0.0019 C   0  0  0  0  0  4           0  0  0
    2.5159   -3.4005   -0.9993 C   0  0  0  0  0  4           0  0  0
    1.9885   -4.8320   -0.9807 C   0  0  0  0  0  4           0  0  0
    2.7314   -5.7120   -1.9734 C   0  0  0  0  0  4           0  0  0
  1  8  1  0     0  0
  2  9  1  0     0  0
  2 10  1  0     0  0
  3 23  2  0     0  0
  4 23  1  0     0  0
  5 24  1  0     0  0
  6 11  1  0     0  0
  6 12  1  0     0  0
  6 25  1  0     0  0
  7  8  1  0     0  0
  7 11  2  0     0  0
  8 12  2  0     0  0
  9 13  1  0     0  0
  9 16  2  0     0  0
 10 15  2  0     0  0
 10 17  1  0     0  0
 11 26  1  0     0  0
 12 24  1  0     0  0
 13 18  2  0     0  0
 13 23  1  0     0  0
 14 15  1  0     0  0
 14 19  2  0     0  0
 14 25  1  0     0  0
 16 21  1  0     0  0
 17 20  2  0     0  0
 18 22  1  0     0  0
 19 20  1  0     0  0
 21 22  2  0     0  0
 26 27  1  0     0  0
 27 28  1  0     0  0
 28 29  1  0     0  0
M  END
> <standard_type>
pIC50

> <# Confs.>
25

> <canonical_smiles>
ClC(N=C1CCCC)=C(CO)N1CC2=CC=CC(OC3=CC=CC=C3C(O)=O)=C2

> <standard_relation>
=

> <Publication_ID>
nan

> <predicted_activity_value>
7.3979400086720375

> <actual_activity_value>
6.3979400086720375

> <Compound>
12

> <standard_units>
nM

> hash
1572487227986651878

$$$$
12_
XXILIB    08252103503D 0   0.00000     0.00000

 29 31  0     1  0            999 V2000
    5.0124    1.4761   -0.0112 Cl  0  0  0  0  0  1           0  0  0
   -1.5549    2.3881    4.0025 O   0  0  0  0  0  2           0  0  0
   -3.3816    4.7482    3.5244 O   0  0  0  0  0  2           0  0  0
   -2.3544    5.0572    1.4943 O   0  0  0  0  0  2           0  0  0
    0.7468    2.6048   -0.9349 O   0  0  0  0  0  2           0  0  0
    1.4518   -0.0000    0.0000 N   0  0  0  0  0  3           0  0  0
    3.5350   -0.7729   -0.0069 N   0  0  0  0  0  3           0  0  0
    3.5513    0.5972   -0.0012 C   0  0  0  0  0  4           0  0  0
   -0.6342    3.4004    3.8749 C   0  0  0  0  0  4           0  0  0
   -1.2748    1.1953    3.3737 C   0  0  0  0  0  4           0  0  0
    2.2633   -1.1181   -0.0000 C   0  0  0  0  0  4           0  0  0
    2.2688    1.1136    0.0114 C   0  0  0  0  0  4           0  0  0
   -1.0213    4.6137    3.2840 C   0  0  0  0  0  4           0  0  0
   -0.5421    0.0000    1.3968 C   0  0  0  0  0  4           0  0  0
   -0.7994    1.2075    2.0598 C   0  0  0  0  0  4           0  0  0
    0.6954    3.2106    4.2760 C   0  0  0  0  0  4           0  0  0
   -1.5280   -0.0087    4.0311 C   0  0  0  0  0  4           0  0  0
   -0.0749    5.6360    3.1244 C   0  0  0  0  0  4           0  0  0
   -0.7745   -1.2085    2.0709 C   0  0  0  0  0  4           0  0  0
   -1.2697   -1.2112    3.3774 C   0  0  0  0  0  4           0  0  0
    1.6267    4.2362    4.1192 C   0  0  0  0  0  4           0  0  0
    1.2419    5.4466    3.5469 C   0  0  0  0  0  4           0  0  0
   -2.3911    4.8079    2.8203 C   0  0  0  0  0  4           0  0  0
    1.7894    2.5112    0.0246 C   0  0  0  0  0  4           0  0  0
    0.0000    0.0000    0.0000 C   0  0  0  0  0  4           0  0  0
    1.7676   -2.5213   -0.0019 C   0  0  0  0  0  4           0  0  0
    2.5159   -3.4005   -0.9993 C   0  0  0  0  0  4           0  0  0
    1.9885   -4.8320   -0.9807 C   0  0  0  0  0  4           0  0  0
    2.7314   -5.7120   -1.9734 C   0  0  0  0  0  4           0  0  0
  1  8  1  0     0  0
  2  9  1  0     0  0
  2 10  1  0     0  0
  3 23  2  0     0  0
  4 23  1  0     0  0
  5 24  1  0     0  0
  6 11  1  0     0  0
  6 12  1  0     0  0
  6 25  1  0     0  0
  7  8  1  0     0  0
  7 11  2  0     0  0
  8 12  2  0     0  0
  9 13  1  0     0  0
  9 16  2  0     0  0
 10 15  2  0     0  0
 10 17  1  0     0  0
 11 26  1  0     0  0
 12 24  1  0     0  0
 13 18  2  0     0  0
 13 23  1  0     0  0
 14 15  1  0     0  0
 14 19  2  0     0  0
 14 25  1  0     0  0
 16 21  1  0     0  0
 17 20  2  0     0  0
 18 22  1  0     0  0
 19 20  1  0     0  0
 21 22  2  0     0  0
 26 27  1  0     0  0
 27 28  1  0     0  0
 28 29  1  0     0  0
M  END
> <standard_type>
pIC50

> <# Confs.>
25

> <canonical_smiles>
ClC(N=C1CCCC)=C(CO)N1CC2=CC=CC(OC3=CC=CC=C3C(O)=O)=C2

> <standard_relation>
=

> <Publication_ID>
nan

> <predicted_activity_value>
7.3979400086720375

> <actual_activity_value>
6.3979400086720375

> <Compound>
12

> <standard_units>
nM

> hash
1572487227986651878

$$$$
12_
XXILIB    08252103503D 0   0.00000     0.00000

 29 31  0     1  0            999 V2000
    5.0124   -1.4761    0.0112 Cl  0  0  0  0  0  1           0  0  0
   -1.5523   -2.3881    4.0035 O   0  0  0  0  0  2           0  0  0
   -3.1751   -4.8737    3.4754 O   0  0  0  0  0  2           0  0  0
   -1.9980   -5.1836    1.5285 O   0  0  0  0  0  2           0  0  0
    0.7454   -2.5862   -0.9841 O   0  0  0  0  0  2           0  0  0
    1.4518   -0.0000   -0.0000 N   0  0  0  0  0  3           0  0  0
    3.5350    0.7729    0.0069 N   0  0  0  0  0  3           0  0  0
    3.5513   -0.5972    0.0012 C   0  0  0  0  0  4           0  0  0
   -0.5524   -3.3293    3.9486 C   0  0  0  0  0  4           0  0  0
   -1.3349   -1.1953    3.3504 C   0  0  0  0  0  4           0  0  0
    2.2633    1.1181    0.0000 C   0  0  0  0  0  4           0  0  0
    2.2688   -1.1136   -0.0114 C   0  0  0  0  0  4           0  0  0
   -0.8183   -4.5851    3.3797 C   0  0  0  0  0  4           0  0  0
   -0.5421    0.0000    1.3968 C   0  0  0  0  0  4           0  0  0
   -0.7994   -1.2075    2.0598 C   0  0  0  0  0  4           0  0  0
    0.7069   -3.0660    4.5049 C   0  0  0  0  0  4           0  0  0
   -1.5914    0.0087    4.0065 C   0  0  0  0  0  4           0  0  0
    0.1916   -5.5572    3.3515 C   0  0  0  0  0  4           0  0  0
   -0.8253    1.2085    2.0512 C   0  0  0  0  0  4           0  0  0
   -1.3411    1.2112    3.3497 C   0  0  0  0  0  4           0  0  0
    1.7063   -4.0374    4.4653 C   0  0  0  0  0  4           0  0  0
    1.4499   -5.2790    3.8880 C   0  0  0  0  0  4           0  0  0
   -2.1388   -4.8881    2.8380 C   0  0  0  0  0  4           0  0  0
    1.7894   -2.5112   -0.0246 C   0  0  0  0  0  4           0  0  0
    0.0000    0.0000   -0.0000 C   0  0  0  0  0  4           0  0  0
    1.7676    2.5213    0.0019 C   0  0  0  0  0  4           0  0  0
    2.5135    3.4023   -0.9959 C   0  0  0  0  0  4           0  0  0
    1.9861    4.8337   -0.9734 C   0  0  0  0  0  4           0  0  0
    2.7266    5.7155   -1.9663 C   0  0  0  0  0  4           0  0  0
  1  8  1  0     0  0
  2  9  1  0     0  0
  2 10  1  0     0  0
  3 23  2  0     0  0
  4 23  1  0     0  0
  5 24  1  0     0  0
  6 11  1  0     0  0
  6 12  1  0     0  0
  6 25  1  0     0  0
  7  8  1  0     0  0
  7 11  2  0     0  0
  8 12  2  0     0  0
  9 13  1  0     0  0
  9 16  2  0     0  0
 10 15  2  0     0  0
 10 17  1  0     0  0
 11 26  1  0     0  0
 12 24  1  0     0  0
 13 18  2  0     0  0
 13 23  1  0     0  0
 14 15  1  0     0  0
 14 19  2  0     0  0
 14 25  1  0     0  0
 16 21  1  0     0  0
 17 20  2  0     0  0
 18 22  1  0     0  0
 19 20  1  0     0  0
 21 22  2  0     0  0
 26 27  1  0     0  0
 27 28  1  0     0  0
 28 29  1  0     0  0
M  END
> <standard_type>
pIC50

> <# Confs.>
25

> <canonical_smiles>
ClC(N=C1CCCC)=C(CO)N1CC2=CC=CC(OC3=CC=CC=C3C(O)=O)=C2

> <standard_relation>
=

> <Publication_ID>
nan

> <predicted_activity_value>
7.3979400086720375

> <actual_activity_value>
6.3979400086720375

> <Compound>
12

> <standard_units>
nM

> hash
1572487227986651878

$$$$
12_
XXILIB    08252103503D 0   0.00000     0.00000

 29 31  0     1  0            999 V2000
    5.0124    1.4761   -0.0112 Cl  0  0  0  0  0  1           0  0  0
   -1.5523   -2.3881    4.0035 O   0  0  0  0  0  2           0  0  0
   -3.1751   -4.8737    3.4754 O   0  0  0  0  0  2           0  0  0
   -1.9980   -5.1836    1.5285 O   0  0  0  0  0  2           0  0  0
    0.7468    2.6048   -0.9349 O   0  0  0  0  0  2           0  0  0
    1.4518   -0.0000    0.0000 N   0  0  0  0  0  3           0  0  0
    3.5350   -0.7729   -0.0069 N   0  0  0  0  0  3           0  0  0
    3.5513    0.5972   -0.0012 C   0  0  0  0  0  4           0  0  0
   -0.5524   -3.3293    3.9486 C   0  0  0  0  0  4           0  0  0
   -1.3349   -1.1953    3.3504 C   0  0  0  0  0  4           0  0  0
    2.2633   -1.1181   -0.0000 C   0  0  0  0  0  4           0  0  0
    2.2688    1.1136    0.0114 C   0  0  0  0  0  4           0  0  0
   -0.8183   -4.5851    3.3797 C   0  0  0  0  0  4           0  0  0
   -0.5421    0.0000    1.3968 C   0  0  0  0  0  4           0  0  0
   -0.7994   -1.2075    2.0598 C   0  0  0  0  0  4           0  0  0
    0.7069   -3.0660    4.5049 C   0  0  0  0  0  4           0  0  0
   -1.5914    0.0087    4.0065 C   0  0  0  0  0  4           0  0  0
    0.1916   -5.5572    3.3515 C   0  0  0  0  0  4           0  0  0
   -0.8253    1.2085    2.0512 C   0  0  0  0  0  4           0  0  0
   -1.3411    1.2112    3.3497 C   0  0  0  0  0  4           0  0  0
    1.7063   -4.0374    4.4653 C   0  0  0  0  0  4           0  0  0
    1.4499   -5.2790    3.8880 C   0  0  0  0  0  4           0  0  0
   -2.1388   -4.8881    2.8380 C   0  0  0  0  0  4           0  0  0
    1.7894    2.5112    0.0246 C   0  0  0  0  0  4           0  0  0
    0.0000    0.0000   -0.0000 C   0  0  0  0  0  4           0  0  0
    1.7676   -2.5213   -0.0019 C   0  0  0  0  0  4           0  0  0
    2.5159   -3.4005   -0.9993 C   0  0  0  0  0  4           0  0  0
    1.9885   -4.8320   -0.9807 C   0  0  0  0  0  4           0  0  0
    2.7314   -5.7120   -1.9734 C   0  0  0  0  0  4           0  0  0
  1  8  1  0     0  0
  2  9  1  0     0  0
  2 10  1  0     0  0
  3 23  2  0     0  0
  4 23  1  0     0  0
  5 24  1  0     0  0
  6 11  1  0     0  0
  6 12  1  0     0  0
  6 25  1  0     0  0
  7  8  1  0     0  0
  7 11  2  0     0  0
  8 12  2  0     0  0
  9 13  1  0     0  0
  9 16  2  0     0  0
 10 15  2  0     0  0
 10 17  1  0     0  0
 11 26  1  0     0  0
 12 24  1  0     0  0
 13 18  2  0     0  0
 13 23  1  0     0  0
 14 15  1  0     0  0
 14 19  2  0     0  0
 14 25  1  0     0  0
 16 21  1  0     0  0
 17 20  2  0     0  0
 18 22  1  0     0  0
 19 20  1  0     0  0
 21 22  2  0     0  0
 26 27  1  0     0  0
 27 28  1  0     0  0
 28 29  1  0     0  0
M  END
> <standard_type>
pIC50

> <# Confs.>
25

> <canonical_smiles>
ClC(N=C1CCCC)=C(CO)N1CC2=CC=CC(OC3=CC=CC=C3C(O)=O)=C2

> <standard_relation>
=

> <Publication_ID>
nan

> <predicted_activity_value>
7.3979400086720375

> <actual_activity_value>
6.3979400086720375

> <Compound>
12

> <standard_units>
nM

> hash
1572487227986651878

$$$$
12_
XXILIB    08252103503D 0   0.00000     0.00000

 29 31  0     1  0            999 V2000
    5.0124   -1.4761    0.0112 Cl  0  0  0  0  0  1           0  0  0
   -1.5523   -2.3881    4.0035 O   0  0  0  0  0  2           0  0  0
    0.8422   -4.1322    3.4422 O   0  0  0  0  0  2           0  0  0
   -0.2013   -5.8553    4.5439 O   0  0  0  0  0  2           0  0  0
    0.7454   -2.5862   -0.9841 O   0  0  0  0  0  2           0  0  0
    1.4518   -0.0000   -0.0000 N   0  0  0  0  0  3           0  0  0
    3.5350    0.7729    0.0069 N   0  0  0  0  0  3           0  0  0
    3.5513   -0.5972    0.0012 C   0  0  0  0  0  4           0  0  0
   -2.1459   -3.4004    3.2882 C   0  0  0  0  0  4           0  0  0
   -1.3349   -1.1953    3.3504 C   0  0  0  0  0  4           0  0  0
    2.2633    1.1181    0.0000 C   0  0  0  0  0  4           0  0  0
    2.2688   -1.1136   -0.0114 C   0  0  0  0  0  4           0  0  0
   -1.4615   -4.6137    3.1131 C   0  0  0  0  0  4           0  0  0
   -0.5421    0.0000    1.3968 C   0  0  0  0  0  4           0  0  0
   -0.7994   -1.2075    2.0598 C   0  0  0  0  0  4           0  0  0
   -3.3979   -3.2106    2.6874 C   0  0  0  0  0  4           0  0  0
   -1.5914    0.0087    4.0065 C   0  0  0  0  0  4           0  0  0
   -2.0524   -5.6360    2.3569 C   0  0  0  0  0  4           0  0  0
   -0.8253    1.2085    2.0512 C   0  0  0  0  0  4           0  0  0
   -1.3411    1.2112    3.3497 C   0  0  0  0  0  4           0  0  0
   -3.9796   -4.2362    1.9433 C   0  0  0  0  0  4           0  0  0
   -3.3095   -5.4466    1.7805 C   0  0  0  0  0  4           0  0  0
   -0.1375   -4.8079    3.6950 C   0  0  0  0  0  4           0  0  0
    1.7894   -2.5112   -0.0246 C   0  0  0  0  0  4           0  0  0
   -0.0000    0.0000    0.0000 C   0  0  0  0  0  4           0  0  0
    1.7676    2.5213    0.0019 C   0  0  0  0  0  4           0  0  0
    2.5135    3.4023   -0.9959 C   0  0  0  0  0  4           0  0  0
    1.9861    4.8337   -0.9734 C   0  0  0  0  0  4           0  0  0
    2.7266    5.7155   -1.9663 C   0  0  0  0  0  4           0  0  0
  1  8  1  0     0  0
  2  9  1  0     0  0
  2 10  1  0     0  0
  3 23  2  0     0  0
  4 23  1  0     0  0
  5 24  1  0     0  0
  6 11  1  0     0  0
  6 12  1  0     0  0
  6 25  1  0     0  0
  7  8  1  0     0  0
  7 11  2  0     0  0
  8 12  2  0     0  0
  9 13  1  0     0  0
  9 16  2  0     0  0
 10 15  2  0     0  0
 10 17  1  0     0  0
 11 26  1  0     0  0
 12 24  1  0     0  0
 13 18  2  0     0  0
 13 23  1  0     0  0
 14 15  1  0     0  0
 14 19  2  0     0  0
 14 25  1  0     0  0
 16 21  1  0     0  0
 17 20  2  0     0  0
 18 22  1  0     0  0
 19 20  1  0     0  0
 21 22  2  0     0  0
 26 27  1  0     0  0
 27 28  1  0     0  0
 28 29  1  0     0  0
M  END
> <standard_type>
pIC50

> <# Confs.>
25

> <canonical_smiles>
ClC(N=C1CCCC)=C(CO)N1CC2=CC=CC(OC3=CC=CC=C3C(O)=O)=C2

> <standard_relation>
=

> <Publication_ID>
nan

> <predicted_activity_value>
7.3979400086720375

> <actual_activity_value>
6.3979400086720375

> <Compound>
12

> <standard_units>
nM

> hash
1572487227986651878

$$$$
12_
XXILIB    08252103503D 0   0.00000     0.00000

 29 31  0     1  0            999 V2000
    5.0124    1.4761   -0.0112 Cl  0  0  0  0  0  1           0  0  0
   -1.5523   -2.3881    4.0035 O   0  0  0  0  0  2           0  0  0
    0.1187   -4.7482    4.8829 O   0  0  0  0  0  2           0  0  0
    0.7299   -5.0572    2.6913 O   0  0  0  0  0  2           0  0  0
    0.7468    2.6048   -0.9349 O   0  0  0  0  0  2           0  0  0
    1.4518   -0.0000    0.0000 N   0  0  0  0  0  3           0  0  0
    3.5350   -0.7729   -0.0069 N   0  0  0  0  0  3           0  0  0
    3.5513    0.5972   -0.0012 C   0  0  0  0  0  4           0  0  0
   -2.1459   -3.4004    3.2882 C   0  0  0  0  0  4           0  0  0
   -1.3349   -1.1953    3.3504 C   0  0  0  0  0  4           0  0  0
    2.2633   -1.1181   -0.0000 C   0  0  0  0  0  4           0  0  0
    2.2688    1.1136    0.0114 C   0  0  0  0  0  4           0  0  0
   -1.4615   -4.6137    3.1131 C   0  0  0  0  0  4           0  0  0
   -0.5421    0.0000    1.3968 C   0  0  0  0  0  4           0  0  0
   -0.7994   -1.2075    2.0598 C   0  0  0  0  0  4           0  0  0
   -3.3979   -3.2106    2.6874 C   0  0  0  0  0  4           0  0  0
   -1.5914    0.0087    4.0065 C   0  0  0  0  0  4           0  0  0
   -2.0524   -5.6360    2.3569 C   0  0  0  0  0  4           0  0  0
   -0.8253    1.2085    2.0512 C   0  0  0  0  0  4           0  0  0
   -1.3411    1.2112    3.3497 C   0  0  0  0  0  4           0  0  0
   -3.9796   -4.2362    1.9433 C   0  0  0  0  0  4           0  0  0
   -3.3095   -5.4466    1.7805 C   0  0  0  0  0  4           0  0  0
   -0.1375   -4.8079    3.6950 C   0  0  0  0  0  4           0  0  0
    1.7894    2.5112    0.0246 C   0  0  0  0  0  4           0  0  0
   -0.0000    0.0000    0.0000 C   0  0  0  0  0  4           0  0  0
    1.7676   -2.5213   -0.0019 C   0  0  0  0  0  4           0  0  0
    2.5159   -3.4005   -0.9993 C   0  0  0  0  0  4           0  0  0
    1.9885   -4.8320   -0.9807 C   0  0  0  0  0  4           0  0  0
    2.7314   -5.7120   -1.9734 C   0  0  0  0  0  4           0  0  0
  1  8  1  0     0  0
  2  9  1  0     0  0
  2 10  1  0     0  0
  3 23  2  0     0  0
  4 23  1  0     0  0
  5 24  1  0     0  0
  6 11  1  0     0  0
  6 12  1  0     0  0
  6 25  1  0     0  0
  7  8  1  0     0  0
  7 11  2  0     0  0
  8 12  2  0     0  0
  9 13  1  0     0  0
  9 16  2  0     0  0
 10 15  2  0     0  0
 10 17  1  0     0  0
 11 26  1  0     0  0
 12 24  1  0     0  0
 13 18  2  0     0  0
 13 23  1  0     0  0
 14 15  1  0     0  0
 14 19  2  0     0  0
 14 25  1  0     0  0
 16 21  1  0     0  0
 17 20  2  0     0  0
 18 22  1  0     0  0
 19 20  1  0     0  0
 21 22  2  0     0  0
 26 27  1  0     0  0
 27 28  1  0     0  0
 28 29  1  0     0  0
M  END
> <standard_type>
pIC50

> <# Confs.>
25

> <canonical_smiles>
ClC(N=C1CCCC)=C(CO)N1CC2=CC=CC(OC3=CC=CC=C3C(O)=O)=C2

> <standard_relation>
=

> <Publication_ID>
nan

> <predicted_activity_value>
7.3979400086720375

> <actual_activity_value>
6.3979400086720375

> <Compound>
12

> <standard_units>
nM

> hash
1572487227986651878

$$$$
12_
XXILIB    08252103503D 0   0.00000     0.00000

 29 31  0     1  0            999 V2000
    5.0124   -1.4761    0.0112 Cl  0  0  0  0  0  1           0  0  0
   -1.5549    2.3881    4.0025 O   0  0  0  0  0  2           0  0  0
   -4.0238    2.2407    5.1246 O   0  0  0  0  0  2           0  0  0
   -4.0413    3.6801    6.9134 O   0  0  0  0  0  2           0  0  0
    0.7454   -2.5862   -0.9841 O   0  0  0  0  0  2           0  0  0
    1.4518   -0.0000   -0.0000 N   0  0  0  0  0  3           0  0  0
    3.5350    0.7729    0.0069 N   0  0  0  0  0  3           0  0  0
    3.5513   -0.5972    0.0012 C   0  0  0  0  0  4           0  0  0
   -1.1106    2.5405    5.2940 C   0  0  0  0  0  4           0  0  0
   -1.2748    1.1953    3.3737 C   0  0  0  0  0  4           0  0  0
    2.2633    1.1181    0.0000 C   0  0  0  0  0  4           0  0  0
    2.2688   -1.1136   -0.0114 C   0  0  0  0  0  4           0  0  0
   -2.0403    2.7743    6.3197 C   0  0  0  0  0  4           0  0  0
   -0.5421   -0.0000    1.3968 C   0  0  0  0  0  4           0  0  0
   -0.7994    1.2075    2.0598 C   0  0  0  0  0  4           0  0  0
    0.2607    2.5213    5.5839 C   0  0  0  0  0  4           0  0  0
   -1.5280   -0.0087    4.0311 C   0  0  0  0  0  4           0  0  0
   -1.5860    2.9614    7.6330 C   0  0  0  0  0  4           0  0  0
   -0.7745   -1.2085    2.0709 C   0  0  0  0  0  4           0  0  0
   -1.2697   -1.2112    3.3774 C   0  0  0  0  0  4           0  0  0
    0.7012    2.7015    6.8944 C   0  0  0  0  0  4           0  0  0
   -0.2199    2.9187    7.9166 C   0  0  0  0  0  4           0  0  0
   -3.4676    2.8421    6.0243 C   0  0  0  0  0  4           0  0  0
    1.7894   -2.5112   -0.0246 C   0  0  0  0  0  4           0  0  0
    0.0000    0.0000    0.0000 C   0  0  0  0  0  4           0  0  0
    1.7676    2.5213    0.0019 C   0  0  0  0  0  4           0  0  0
    2.5135    3.4023   -0.9959 C   0  0  0  0  0  4           0  0  0
    1.9861    4.8337   -0.9734 C   0  0  0  0  0  4           0  0  0
    2.7266    5.7155   -1.9663 C   0  0  0  0  0  4           0  0  0
  1  8  1  0     0  0
  2  9  1  0     0  0
  2 10  1  0     0  0
  3 23  2  0     0  0
  4 23  1  0     0  0
  5 24  1  0     0  0
  6 11  1  0     0  0
  6 12  1  0     0  0
  6 25  1  0     0  0
  7  8  1  0     0  0
  7 11  2  0     0  0
  8 12  2  0     0  0
  9 13  1  0     0  0
  9 16  2  0     0  0
 10 15  2  0     0  0
 10 17  1  0     0  0
 11 26  1  0     0  0
 12 24  1  0     0  0
 13 18  2  0     0  0
 13 23  1  0     0  0
 14 15  1  0     0  0
 14 19  2  0     0  0
 14 25  1  0     0  0
 16 21  1  0     0  0
 17 20  2  0     0  0
 18 22  1  0     0  0
 19 20  1  0     0  0
 21 22  2  0     0  0
 26 27  1  0     0  0
 27 28  1  0     0  0
 28 29  1  0     0  0
M  END
> <standard_type>
pIC50

> <# Confs.>
25

> <canonical_smiles>
ClC(N=C1CCCC)=C(CO)N1CC2=CC=CC(OC3=CC=CC=C3C(O)=O)=C2

> <standard_relation>
=

> <Publication_ID>
nan

> <predicted_activity_value>
7.3979400086720375

> <actual_activity_value>
6.3979400086720375

> <Compound>
12

> <standard_units>
nM

> hash
1572487227986651878

$$$$
12_
XXILIB    08252103503D 0   0.00000     0.00000

 29 31  0     1  0            999 V2000
    5.0124    1.4761   -0.0112 Cl  0  0  0  0  0  1           0  0  0
   -1.5549    2.3881    4.0025 O   0  0  0  0  0  2           0  0  0
   -4.0238    2.2407    5.1246 O   0  0  0  0  0  2           0  0  0
   -4.0413    3.6801    6.9134 O   0  0  0  0  0  2           0  0  0
    0.7468    2.6048   -0.9349 O   0  0  0  0  0  2           0  0  0
    1.4518   -0.0000    0.0000 N   0  0  0  0  0  3           0  0  0
    3.5350   -0.7729   -0.0069 N   0  0  0  0  0  3           0  0  0
    3.5513    0.5972   -0.0012 C   0  0  0  0  0  4           0  0  0
   -1.1106    2.5405    5.2940 C   0  0  0  0  0  4           0  0  0
   -1.2748    1.1953    3.3737 C   0  0  0  0  0  4           0  0  0
    2.2633   -1.1181   -0.0000 C   0  0  0  0  0  4           0  0  0
    2.2688    1.1136    0.0114 C   0  0  0  0  0  4           0  0  0
   -2.0403    2.7743    6.3197 C   0  0  0  0  0  4           0  0  0
   -0.5421   -0.0000    1.3968 C   0  0  0  0  0  4           0  0  0
   -0.7994    1.2075    2.0598 C   0  0  0  0  0  4           0  0  0
    0.2607    2.5213    5.5839 C   0  0  0  0  0  4           0  0  0
   -1.5280   -0.0087    4.0311 C   0  0  0  0  0  4           0  0  0
   -1.5860    2.9614    7.6330 C   0  0  0  0  0  4           0  0  0
   -0.7745   -1.2085    2.0709 C   0  0  0  0  0  4           0  0  0
   -1.2697   -1.2112    3.3774 C   0  0  0  0  0  4           0  0  0
    0.7012    2.7015    6.8944 C   0  0  0  0  0  4           0  0  0
   -0.2199    2.9187    7.9166 C   0  0  0  0  0  4           0  0  0
   -3.4676    2.8421    6.0243 C   0  0  0  0  0  4           0  0  0
    1.7894    2.5112    0.0246 C   0  0  0  0  0  4           0  0  0
    0.0000    0.0000    0.0000 C   0  0  0  0  0  4           0  0  0
    1.7676   -2.5213   -0.0019 C   0  0  0  0  0  4           0  0  0
    2.5159   -3.4005   -0.9993 C   0  0  0  0  0  4           0  0  0
    1.9885   -4.8320   -0.9807 C   0  0  0  0  0  4           0  0  0
    2.7314   -5.7120   -1.9734 C   0  0  0  0  0  4           0  0  0
  1  8  1  0     0  0
  2  9  1  0     0  0
  2 10  1  0     0  0
  3 23  2  0     0  0
  4 23  1  0     0  0
  5 24  1  0     0  0
  6 11  1  0     0  0
  6 12  1  0     0  0
  6 25  1  0     0  0
  7  8  1  0     0  0
  7 11  2  0     0  0
  8 12  2  0     0  0
  9 13  1  0     0  0
  9 16  2  0     0  0
 10 15  2  0     0  0
 10 17  1  0     0  0
 11 26  1  0     0  0
 12 24  1  0     0  0
 13 18  2  0     0  0
 13 23  1  0     0  0
 14 15  1  0     0  0
 14 19  2  0     0  0
 14 25  1  0     0  0
 16 21  1  0     0  0
 17 20  2  0     0  0
 18 22  1  0     0  0
 19 20  1  0     0  0
 21 22  2  0     0  0
 26 27  1  0     0  0
 27 28  1  0     0  0
 28 29  1  0     0  0
M  END
> <standard_type>
pIC50

> <# Confs.>
25

> <canonical_smiles>
ClC(N=C1CCCC)=C(CO)N1CC2=CC=CC(OC3=CC=CC=C3C(O)=O)=C2

> <standard_relation>
=

> <Publication_ID>
nan

> <predicted_activity_value>
7.3979400086720375

> <actual_activity_value>
6.3979400086720375

> <Compound>
12

> <standard_units>
nM

> hash
1572487227986651878

$$$$
12_
XXILIB    08252103503D 0   0.00000     0.00000

 29 31  0     1  0            999 V2000
    5.0124   -1.4761    0.0112 Cl  0  0  0  0  0  1           0  0  0
   -1.5523   -2.3881    4.0035 O   0  0  0  0  0  2           0  0  0
    0.1187   -4.7482    4.8829 O   0  0  0  0  0  2           0  0  0
    0.7299   -5.0572    2.6913 O   0  0  0  0  0  2           0  0  0
    0.7454   -2.5862   -0.9841 O   0  0  0  0  0  2           0  0  0
    1.4518   -0.0000   -0.0000 N   0  0  0  0  0  3           0  0  0
    3.5350    0.7729    0.0069 N   0  0  0  0  0  3           0  0  0
    3.5513   -0.5972    0.0012 C   0  0  0  0  0  4           0  0  0
   -2.1459   -3.4004    3.2882 C   0  0  0  0  0  4           0  0  0
   -1.3349   -1.1953    3.3504 C   0  0  0  0  0  4           0  0  0
    2.2633    1.1181    0.0000 C   0  0  0  0  0  4           0  0  0
    2.2688   -1.1136   -0.0114 C   0  0  0  0  0  4           0  0  0
   -1.4615   -4.6137    3.1131 C   0  0  0  0  0  4           0  0  0
   -0.5421    0.0000    1.3968 C   0  0  0  0  0  4           0  0  0
   -0.7994   -1.2075    2.0598 C   0  0  0  0  0  4           0  0  0
   -3.3979   -3.2106    2.6874 C   0  0  0  0  0  4           0  0  0
   -1.5914    0.0087    4.0065 C   0  0  0  0  0  4           0  0  0
   -2.0524   -5.6360    2.3569 C   0  0  0  0  0  4           0  0  0
   -0.8253    1.2085    2.0512 C   0  0  0  0  0  4           0  0  0
   -1.3411    1.2112    3.3497 C   0  0  0  0  0  4           0  0  0
   -3.9796   -4.2362    1.9433 C   0  0  0  0  0  4           0  0  0
   -3.3095   -5.4466    1.7805 C   0  0  0  0  0  4           0  0  0
   -0.1375   -4.8079    3.6950 C   0  0  0  0  0  4           0  0  0
    1.7894   -2.5112   -0.0246 C   0  0  0  0  0  4           0  0  0
   -0.0000    0.0000    0.0000 C   0  0  0  0  0  4           0  0  0
    1.7676    2.5213    0.0019 C   0  0  0  0  0  4           0  0  0
    2.5135    3.4023   -0.9959 C   0  0  0  0  0  4           0  0  0
    1.9861    4.8337   -0.9734 C   0  0  0  0  0  4           0  0  0
    2.7266    5.7155   -1.9663 C   0  0  0  0  0  4           0  0  0
  1  8  1  0     0  0
  2  9  1  0     0  0
  2 10  1  0     0  0
  3 23  2  0     0  0
  4 23  1  0     0  0
  5 24  1  0     0  0
  6 11  1  0     0  0
  6 12  1  0     0  0
  6 25  1  0     0  0
  7  8  1  0     0  0
  7 11  2  0     0  0
  8 12  2  0     0  0
  9 13  1  0     0  0
  9 16  2  0     0  0
 10 15  2  0     0  0
 10 17  1  0     0  0
 11 26  1  0     0  0
 12 24  1  0     0  0
 13 18  2  0     0  0
 13 23  1  0     0  0
 14 15  1  0     0  0
 14 19  2  0     0  0
 14 25  1  0     0  0
 16 21  1  0     0  0
 17 20  2  0     0  0
 18 22  1  0     0  0
 19 20  1  0     0  0
 21 22  2  0     0  0
 26 27  1  0     0  0
 27 28  1  0     0  0
 28 29  1  0     0  0
M  END
> <standard_type>
pIC50

> <# Confs.>
25

> <canonical_smiles>
ClC(N=C1CCCC)=C(CO)N1CC2=CC=CC(OC3=CC=CC=C3C(O)=O)=C2

> <standard_relation>
=

> <Publication_ID>
nan

> <predicted_activity_value>
7.3979400086720375

> <actual_activity_value>
6.3979400086720375

> <Compound>
12

> <standard_units>
nM

> hash
1572487227986651878

$$$$
12_
XXILIB    08252103503D 0   0.00000     0.00000

 29 31  0     1  0            999 V2000
    5.0124   -1.4761    0.0112 Cl  0  0  0  0  0  1           0  0  0
   -1.5523   -2.3881    4.0035 O   0  0  0  0  0  2           0  0  0
   -2.6786   -4.2800    1.9328 O   0  0  0  0  0  2           0  0  0
   -2.6389   -5.9428    3.5157 O   0  0  0  0  0  2           0  0  0
    0.7454   -2.5862   -0.9841 O   0  0  0  0  0  2           0  0  0
    1.4518    0.0000    0.0000 N   0  0  0  0  0  3           0  0  0
    3.5350    0.7729    0.0069 N   0  0  0  0  0  3           0  0  0
    3.5513   -0.5972    0.0012 C   0  0  0  0  0  4           0  0  0
   -0.5524   -3.3293    3.9486 C   0  0  0  0  0  4           0  0  0
   -1.3349   -1.1953    3.3504 C   0  0  0  0  0  4           0  0  0
    2.2633    1.1181    0.0000 C   0  0  0  0  0  4           0  0  0
    2.2688   -1.1136   -0.0114 C   0  0  0  0  0  4           0  0  0
   -0.8183   -4.5851    3.3797 C   0  0  0  0  0  4           0  0  0
   -0.5421    0.0000    1.3968 C   0  0  0  0  0  4           0  0  0
   -0.7994   -1.2075    2.0598 C   0  0  0  0  0  4           0  0  0
    0.7069   -3.0660    4.5049 C   0  0  0  0  0  4           0  0  0
   -1.5914    0.0087    4.0065 C   0  0  0  0  0  4           0  0  0
    0.1916   -5.5572    3.3515 C   0  0  0  0  0  4           0  0  0
   -0.8253    1.2085    2.0512 C   0  0  0  0  0  4           0  0  0
   -1.3411    1.2112    3.3497 C   0  0  0  0  0  4           0  0  0
    1.7063   -4.0374    4.4653 C   0  0  0  0  0  4           0  0  0
    1.4499   -5.2790    3.8880 C   0  0  0  0  0  4           0  0  0
   -2.1388   -4.8881    2.8380 C   0  0  0  0  0  4           0  0  0
    1.7894   -2.5112   -0.0246 C   0  0  0  0  0  4           0  0  0
    0.0000    0.0000   -0.0000 C   0  0  0  0  0  4           0  0  0
    1.7676    2.5213    0.0019 C   0  0  0  0  0  4           0  0  0
    2.5159    3.4005    0.9993 C   0  0  0  0  0  4           0  0  0
    1.9885    4.8320    0.9807 C   0  0  0  0  0  4           0  0  0
    2.7314    5.7120    1.9734 C   0  0  0  0  0  4           0  0  0
  1  8  1  0     0  0
  2  9  1  0     0  0
  2 10  1  0     0  0
  3 23  2  0     0  0
  4 23  1  0     0  0
  5 24  1  0     0  0
  6 11  1  0     0  0
  6 12  1  0     0  0
  6 25  1  0     0  0
  7  8  1  0     0  0
  7 11  2  0     0  0
  8 12  2  0     0  0
  9 13  1  0     0  0
  9 16  2  0     0  0
 10 15  2  0     0  0
 10 17  1  0     0  0
 11 26  1  0     0  0
 12 24  1  0     0  0
 13 18  2  0     0  0
 13 23  1  0     0  0
 14 15  1  0     0  0
 14 19  2  0     0  0
 14 25  1  0     0  0
 16 21  1  0     0  0
 17 20  2  0     0  0
 18 22  1  0     0  0
 19 20  1  0     0  0
 21 22  2  0     0  0
 26 27  1  0     0  0
 27 28  1  0     0  0
 28 29  1  0     0  0
M  END
> <standard_type>
pIC50

> <# Confs.>
25

> <canonical_smiles>
ClC(N=C1CCCC)=C(CO)N1CC2=CC=CC(OC3=CC=CC=C3C(O)=O)=C2

> <standard_relation>
=

> <Publication_ID>
nan

> <predicted_activity_value>
7.3979400086720375

> <actual_activity_value>
6.3979400086720375

> <Compound>
12

> <standard_units>
nM

> hash
1572487227986651878

$$$$
12_
XXILIB    08252103503D 0   0.00000     0.00000

 29 31  0     1  0            999 V2000
    5.0124   -1.4761    0.0112 Cl  0  0  0  0  0  1           0  0  0
   -1.5549    2.3881    4.0025 O   0  0  0  0  0  2           0  0  0
   -0.0007    4.8737    4.7074 O   0  0  0  0  0  2           0  0  0
    0.4437    5.1836    2.4762 O   0  0  0  0  0  2           0  0  0
    0.7454   -2.5862   -0.9841 O   0  0  0  0  0  2           0  0  0
    1.4518   -0.0000   -0.0000 N   0  0  0  0  0  3           0  0  0
    3.5350    0.7729    0.0069 N   0  0  0  0  0  3           0  0  0
    3.5513   -0.5972    0.0012 C   0  0  0  0  0  4           0  0  0
   -2.2560    3.3293    3.2874 C   0  0  0  0  0  4           0  0  0
   -1.2748    1.1953    3.3737 C   0  0  0  0  0  4           0  0  0
    2.2633    1.1181    0.0000 C   0  0  0  0  0  4           0  0  0
    2.2688   -1.1136   -0.0114 C   0  0  0  0  0  4           0  0  0
   -1.6759    4.5851    3.0468 C   0  0  0  0  0  4           0  0  0
   -0.5421    0.0000    1.3968 C   0  0  0  0  0  4           0  0  0
   -0.7994    1.2075    2.0598 C   0  0  0  0  0  4           0  0  0
   -3.5609    3.0660    2.8486 C   0  0  0  0  0  4           0  0  0
   -1.5280   -0.0087    4.0311 C   0  0  0  0  0  4           0  0  0
   -2.4024    5.5572    2.3447 C   0  0  0  0  0  4           0  0  0
   -0.7745   -1.2085    2.0709 C   0  0  0  0  0  4           0  0  0
   -1.2697   -1.2112    3.3774 C   0  0  0  0  0  4           0  0  0
   -4.2718    4.0374    2.1452 C   0  0  0  0  0  4           0  0  0
   -3.6932    5.2790    1.8919 C   0  0  0  0  0  4           0  0  0
   -0.3357    4.8881    3.5378 C   0  0  0  0  0  4           0  0  0
    1.7894   -2.5112   -0.0246 C   0  0  0  0  0  4           0  0  0
    0.0000    0.0000   -0.0000 C   0  0  0  0  0  4           0  0  0
    1.7676    2.5213    0.0019 C   0  0  0  0  0  4           0  0  0
    2.5135    3.4023   -0.9959 C   0  0  0  0  0  4           0  0  0
    1.9861    4.8337   -0.9734 C   0  0  0  0  0  4           0  0  0
    2.7266    5.7155   -1.9663 C   0  0  0  0  0  4           0  0  0
  1  8  1  0     0  0
  2  9  1  0     0  0
  2 10  1  0     0  0
  3 23  2  0     0  0
  4 23  1  0     0  0
  5 24  1  0     0  0
  6 11  1  0     0  0
  6 12  1  0     0  0
  6 25  1  0     0  0
  7  8  1  0     0  0
  7 11  2  0     0  0
  8 12  2  0     0  0
  9 13  1  0     0  0
  9 16  2  0     0  0
 10 15  2  0     0  0
 10 17  1  0     0  0
 11 26  1  0     0  0
 12 24  1  0     0  0
 13 18  2  0     0  0
 13 23  1  0     0  0
 14 15  1  0     0  0
 14 19  2  0     0  0
 14 25  1  0     0  0
 16 21  1  0     0  0
 17 20  2  0     0  0
 18 22  1  0     0  0
 19 20  1  0     0  0
 21 22  2  0     0  0
 26 27  1  0     0  0
 27 28  1  0     0  0
 28 29  1  0     0  0
M  END
> <standard_type>
pIC50

> <# Confs.>
25

> <canonical_smiles>
ClC(N=C1CCCC)=C(CO)N1CC2=CC=CC(OC3=CC=CC=C3C(O)=O)=C2

> <standard_relation>
=

> <Publication_ID>
nan

> <predicted_activity_value>
7.3979400086720375

> <actual_activity_value>
6.3979400086720375

> <Compound>
12

> <standard_units>
nM

> hash
1572487227986651878

$$$$
12_
XXILIB    08252103503D 0   0.00000     0.00000

 29 31  0     1  0            999 V2000
    5.0124   -1.4761    0.0112 Cl  0  0  0  0  0  1           0  0  0
    0.0216   -1.6877    4.6143 O   0  0  0  0  0  2           0  0  0
    0.2158   -4.3914    4.5609 O   0  0  0  0  0  2           0  0  0
    2.1445   -4.9241    3.4348 O   0  0  0  0  0  2           0  0  0
    1.6527   -2.8936   -1.3853 O   0  0  0  0  0  2           0  0  0
    1.4518   -0.0000   -0.0000 N   0  0  0  0  0  3           0  0  0
    3.5350    0.7729    0.0069 N   0  0  0  0  0  3           0  0  0
    3.5513   -0.5972    0.0012 C   0  0  0  0  0  4           0  0  0
    1.3928   -1.7081    4.7035 C   0  0  0  0  0  4           0  0  0
   -0.5381   -0.8680    3.6597 C   0  0  0  0  0  4           0  0  0
    2.2633    1.1181    0.0000 C   0  0  0  0  0  4           0  0  0
    2.2688   -1.1136   -0.0114 C   0  0  0  0  0  4           0  0  0
    2.0786   -2.9169    4.5040 C   0  0  0  0  0  4           0  0  0
   -0.5421    0.0000    1.3968 C   0  0  0  0  0  4           0  0  0
   -0.0034   -0.8538    2.3687 C   0  0  0  0  0  4           0  0  0
    2.1030   -0.5494    5.0468 C   0  0  0  0  0  4           0  0  0
   -1.5879   -0.0179    4.0079 C   0  0  0  0  0  4           0  0  0
    3.4751   -2.9458    4.6258 C   0  0  0  0  0  4           0  0  0
   -1.6145    0.8353    1.7449 C   0  0  0  0  0  4           0  0  0
   -2.1291    0.8294    3.0439 C   0  0  0  0  0  4           0  0  0
    3.4923   -0.5877    5.1584 C   0  0  0  0  0  4           0  0  0
    4.1767   -1.7823    4.9462 C   0  0  0  0  0  4           0  0  0
    1.3475   -4.1402    4.1910 C   0  0  0  0  0  4           0  0  0
    1.7894   -2.5112   -0.0246 C   0  0  0  0  0  4           0  0  0
    0.0000    0.0000    0.0000 C   0  0  0  0  0  4           0  0  0
    1.7676    2.5213    0.0019 C   0  0  0  0  0  4           0  0  0
    1.5724    3.0704   -1.4082 C   0  0  0  0  0  4           0  0  0
    1.0643    4.5087   -1.3773 C   0  0  0  0  0  4           0  0  0
    0.8682    5.0601   -2.7806 C   0  0  0  0  0  4           0  0  0
  1  8  1  0     0  0
  2  9  1  0     0  0
  2 10  1  0     0  0
  3 23  2  0     0  0
  4 23  1  0     0  0
  5 24  1  0     0  0
  6 11  1  0     0  0
  6 12  1  0     0  0
  6 25  1  0     0  0
  7  8  1  0     0  0
  7 11  2  0     0  0
  8 12  2  0     0  0
  9 13  1  0     0  0
  9 16  2  0     0  0
 10 15  2  0     0  0
 10 17  1  0     0  0
 11 26  1  0     0  0
 12 24  1  0     0  0
 13 18  2  0     0  0
 13 23  1  0     0  0
 14 15  1  0     0  0
 14 19  2  0     0  0
 14 25  1  0     0  0
 16 21  1  0     0  0
 17 20  2  0     0  0
 18 22  1  0     0  0
 19 20  1  0     0  0
 21 22  2  0     0  0
 26 27  1  0     0  0
 27 28  1  0     0  0
 28 29  1  0     0  0
M  END
> <standard_type>
pIC50

> <# Confs.>
25

> <canonical_smiles>
ClC(N=C1CCCC)=C(CO)N1CC2=CC=CC(OC3=CC=CC=C3C(O)=O)=C2

> <standard_relation>
=

> <Publication_ID>
nan

> <predicted_activity_value>
7.3979400086720375

> <actual_activity_value>
6.3979400086720375

> <Compound>
12

> <standard_units>
nM

> hash
1572487227986651878

$$$$
12_
XXILIB    08252103503D 0   0.00000     0.00000

 29 31  0     1  0            999 V2000
    5.0124   -1.4761    0.0112 Cl  0  0  0  0  0  1           0  0  0
   -1.5549    2.3881    4.0025 O   0  0  0  0  0  2           0  0  0
    0.6734    4.2800    3.2338 O   0  0  0  0  0  2           0  0  0
   -0.4237    5.9428    4.3755 O   0  0  0  0  0  2           0  0  0
    0.7454   -2.5862   -0.9841 O   0  0  0  0  0  2           0  0  0
    1.4518   -0.0000   -0.0000 N   0  0  0  0  0  3           0  0  0
    3.5350    0.7729    0.0069 N   0  0  0  0  0  3           0  0  0
    3.5513   -0.5972    0.0012 C   0  0  0  0  0  4           0  0  0
   -2.2560    3.3293    3.2874 C   0  0  0  0  0  4           0  0  0
   -1.2748    1.1953    3.3737 C   0  0  0  0  0  4           0  0  0
    2.2633    1.1181    0.0000 C   0  0  0  0  0  4           0  0  0
    2.2688   -1.1136   -0.0114 C   0  0  0  0  0  4           0  0  0
   -1.6759    4.5851    3.0468 C   0  0  0  0  0  4           0  0  0
   -0.5421    0.0000    1.3968 C   0  0  0  0  0  4           0  0  0
   -0.7994    1.2075    2.0598 C   0  0  0  0  0  4           0  0  0
   -3.5609    3.0660    2.8486 C   0  0  0  0  0  4           0  0  0
   -1.5280   -0.0087    4.0311 C   0  0  0  0  0  4           0  0  0
   -2.4024    5.5572    2.3447 C   0  0  0  0  0  4           0  0  0
   -0.7745   -1.2085    2.0709 C   0  0  0  0  0  4           0  0  0
   -1.2697   -1.2112    3.3774 C   0  0  0  0  0  4           0  0  0
   -4.2718    4.0374    2.1452 C   0  0  0  0  0  4           0  0  0
   -3.6932    5.2790    1.8919 C   0  0  0  0  0  4           0  0  0
   -0.3357    4.8881    3.5378 C   0  0  0  0  0  4           0  0  0
    1.7894   -2.5112   -0.0246 C   0  0  0  0  0  4           0  0  0
    0.0000    0.0000   -0.0000 C   0  0  0  0  0  4           0  0  0
    1.7676    2.5213    0.0019 C   0  0  0  0  0  4           0  0  0
    2.5135    3.4023   -0.9959 C   0  0  0  0  0  4           0  0  0
    1.9861    4.8337   -0.9734 C   0  0  0  0  0  4           0  0  0
    2.7266    5.7155   -1.9663 C   0  0  0  0  0  4           0  0  0
  1  8  1  0     0  0
  2  9  1  0     0  0
  2 10  1  0     0  0
  3 23  2  0     0  0
  4 23  1  0     0  0
  5 24  1  0     0  0
  6 11  1  0     0  0
  6 12  1  0     0  0
  6 25  1  0     0  0
  7  8  1  0     0  0
  7 11  2  0     0  0
  8 12  2  0     0  0
  9 13  1  0     0  0
  9 16  2  0     0  0
 10 15  2  0     0  0
 10 17  1  0     0  0
 11 26  1  0     0  0
 12 24  1  0     0  0
 13 18  2  0     0  0
 13 23  1  0     0  0
 14 15  1  0     0  0
 14 19  2  0     0  0
 14 25  1  0     0  0
 16 21  1  0     0  0
 17 20  2  0     0  0
 18 22  1  0     0  0
 19 20  1  0     0  0
 21 22  2  0     0  0
 26 27  1  0     0  0
 27 28  1  0     0  0
 28 29  1  0     0  0
M  END
> <standard_type>
pIC50

> <# Confs.>
25

> <canonical_smiles>
ClC(N=C1CCCC)=C(CO)N1CC2=CC=CC(OC3=CC=CC=C3C(O)=O)=C2

> <standard_relation>
=

> <Publication_ID>
nan

> <predicted_activity_value>
7.3979400086720375

> <actual_activity_value>
6.3979400086720375

> <Compound>
12

> <standard_units>
nM

> hash
1572487227986651878

$$$$
12_
XXILIB    08252103503D 0   0.00000     0.00000

 29 31  0     1  0            999 V2000
    5.0124   -1.4761    0.0112 Cl  0  0  0  0  0  1           0  0  0
    0.0216   -1.6877    4.6143 O   0  0  0  0  0  2           0  0  0
    0.2158   -4.3914    4.5609 O   0  0  0  0  0  2           0  0  0
    2.1445   -4.9241    3.4348 O   0  0  0  0  0  2           0  0  0
    1.6527   -2.8936   -1.3853 O   0  0  0  0  0  2           0  0  0
    1.4518   -0.0000   -0.0000 N   0  0  0  0  0  3           0  0  0
    3.5350    0.7729    0.0069 N   0  0  0  0  0  3           0  0  0
    3.5513   -0.5972    0.0012 C   0  0  0  0  0  4           0  0  0
    1.3928   -1.7081    4.7035 C   0  0  0  0  0  4           0  0  0
   -0.5381   -0.8680    3.6597 C   0  0  0  0  0  4           0  0  0
    2.2633    1.1181    0.0000 C   0  0  0  0  0  4           0  0  0
    2.2688   -1.1136   -0.0114 C   0  0  0  0  0  4           0  0  0
    2.0786   -2.9169    4.5040 C   0  0  0  0  0  4           0  0  0
   -0.5421    0.0000    1.3968 C   0  0  0  0  0  4           0  0  0
   -0.0034   -0.8538    2.3687 C   0  0  0  0  0  4           0  0  0
    2.1030   -0.5494    5.0468 C   0  0  0  0  0  4           0  0  0
   -1.5879   -0.0179    4.0079 C   0  0  0  0  0  4           0  0  0
    3.4751   -2.9458    4.6258 C   0  0  0  0  0  4           0  0  0
   -1.6145    0.8353    1.7449 C   0  0  0  0  0  4           0  0  0
   -2.1291    0.8294    3.0439 C   0  0  0  0  0  4           0  0  0
    3.4923   -0.5877    5.1584 C   0  0  0  0  0  4           0  0  0
    4.1767   -1.7823    4.9462 C   0  0  0  0  0  4           0  0  0
    1.3475   -4.1402    4.1910 C   0  0  0  0  0  4           0  0  0
    1.7894   -2.5112   -0.0246 C   0  0  0  0  0  4           0  0  0
    0.0000    0.0000    0.0000 C   0  0  0  0  0  4           0  0  0
    1.7676    2.5213    0.0019 C   0  0  0  0  0  4           0  0  0
    1.5758    3.0679    1.4134 C   0  0  0  0  0  4           0  0  0
    1.0677    4.5062    1.3863 C   0  0  0  0  0  4           0  0  0
    0.8751    5.0552    2.7910 C   0  0  0  0  0  4           0  0  0
  1  8  1  0     0  0
  2  9  1  0     0  0
  2 10  1  0     0  0
  3 23  2  0     0  0
  4 23  1  0     0  0
  5 24  1  0     0  0
  6 11  1  0     0  0
  6 12  1  0     0  0
  6 25  1  0     0  0
  7  8  1  0     0  0
  7 11  2  0     0  0
  8 12  2  0     0  0
  9 13  1  0     0  0
  9 16  2  0     0  0
 10 15  2  0     0  0
 10 17  1  0     0  0
 11 26  1  0     0  0
 12 24  1  0     0  0
 13 18  2  0     0  0
 13 23  1  0     0  0
 14 15  1  0     0  0
 14 19  2  0     0  0
 14 25  1  0     0  0
 16 21  1  0     0  0
 17 20  2  0     0  0
 18 22  1  0     0  0
 19 20  1  0     0  0
 21 22  2  0     0  0
 26 27  1  0     0  0
 27 28  1  0     0  0
 28 29  1  0     0  0
M  END
> <standard_type>
pIC50

> <# Confs.>
25

> <canonical_smiles>
ClC(N=C1CCCC)=C(CO)N1CC2=CC=CC(OC3=CC=CC=C3C(O)=O)=C2

> <standard_relation>
=

> <Publication_ID>
nan

> <predicted_activity_value>
7.3979400086720375

> <actual_activity_value>
6.3979400086720375

> <Compound>
12

> <standard_units>
nM

> hash
1572487227986651878

$$$$
12_
XXILIB    08252103503D 0   0.00000     0.00000

 29 31  0     1  0            999 V2000
    5.0124    1.4761   -0.0112 Cl  0  0  0  0  0  1           0  0  0
   -1.5549    2.3881    4.0025 O   0  0  0  0  0  2           0  0  0
   -0.0007    4.8737    4.7074 O   0  0  0  0  0  2           0  0  0
    0.4437    5.1836    2.4762 O   0  0  0  0  0  2           0  0  0
    0.7468    2.6048   -0.9349 O   0  0  0  0  0  2           0  0  0
    1.4518   -0.0000    0.0000 N   0  0  0  0  0  3           0  0  0
    3.5350   -0.7729   -0.0069 N   0  0  0  0  0  3           0  0  0
    3.5513    0.5972   -0.0012 C   0  0  0  0  0  4           0  0  0
   -2.2560    3.3293    3.2874 C   0  0  0  0  0  4           0  0  0
   -1.2748    1.1953    3.3737 C   0  0  0  0  0  4           0  0  0
    2.2633   -1.1181   -0.0000 C   0  0  0  0  0  4           0  0  0
    2.2688    1.1136    0.0114 C   0  0  0  0  0  4           0  0  0
   -1.6759    4.5851    3.0468 C   0  0  0  0  0  4           0  0  0
   -0.5421    0.0000    1.3968 C   0  0  0  0  0  4           0  0  0
   -0.7994    1.2075    2.0598 C   0  0  0  0  0  4           0  0  0
   -3.5609    3.0660    2.8486 C   0  0  0  0  0  4           0  0  0
   -1.5280   -0.0087    4.0311 C   0  0  0  0  0  4           0  0  0
   -2.4024    5.5572    2.3447 C   0  0  0  0  0  4           0  0  0
   -0.7745   -1.2085    2.0709 C   0  0  0  0  0  4           0  0  0
   -1.2697   -1.2112    3.3774 C   0  0  0  0  0  4           0  0  0
   -4.2718    4.0374    2.1452 C   0  0  0  0  0  4           0  0  0
   -3.6932    5.2790    1.8919 C   0  0  0  0  0  4           0  0  0
   -0.3357    4.8881    3.5378 C   0  0  0  0  0  4           0  0  0
    1.7894    2.5112    0.0246 C   0  0  0  0  0  4           0  0  0
    0.0000    0.0000   -0.0000 C   0  0  0  0  0  4           0  0  0
    1.7676   -2.5213   -0.0019 C   0  0  0  0  0  4           0  0  0
    2.5159   -3.4005   -0.9993 C   0  0  0  0  0  4           0  0  0
    1.9885   -4.8320   -0.9807 C   0  0  0  0  0  4           0  0  0
    2.7314   -5.7120   -1.9734 C   0  0  0  0  0  4           0  0  0
  1  8  1  0     0  0
  2  9  1  0     0  0
  2 10  1  0     0  0
  3 23  2  0     0  0
  4 23  1  0     0  0
  5 24  1  0     0  0
  6 11  1  0     0  0
  6 12  1  0     0  0
  6 25  1  0     0  0
  7  8  1  0     0  0
  7 11  2  0     0  0
  8 12  2  0     0  0
  9 13  1  0     0  0
  9 16  2  0     0  0
 10 15  2  0     0  0
 10 17  1  0     0  0
 11 26  1  0     0  0
 12 24  1  0     0  0
 13 18  2  0     0  0
 13 23  1  0     0  0
 14 15  1  0     0  0
 14 19  2  0     0  0
 14 25  1  0     0  0
 16 21  1  0     0  0
 17 20  2  0     0  0
 18 22  1  0     0  0
 19 20  1  0     0  0
 21 22  2  0     0  0
 26 27  1  0     0  0
 27 28  1  0     0  0
 28 29  1  0     0  0
M  END
> <standard_type>
pIC50

> <# Confs.>
25

> <canonical_smiles>
ClC(N=C1CCCC)=C(CO)N1CC2=CC=CC(OC3=CC=CC=C3C(O)=O)=C2

> <standard_relation>
=

> <Publication_ID>
nan

> <predicted_activity_value>
7.3979400086720375

> <actual_activity_value>
6.3979400086720375

> <Compound>
12

> <standard_units>
nM

> hash
1572487227986651878

$$$$
12_
XXILIB    08252103503D 0   0.00000     0.00000

 29 31  0     1  0            999 V2000
    5.0124    1.4761   -0.0112 Cl  0  0  0  0  0  1           0  0  0
   -1.5523   -2.3881    4.0035 O   0  0  0  0  0  2           0  0  0
    0.8422   -4.1322    3.4422 O   0  0  0  0  0  2           0  0  0
   -0.2013   -5.8553    4.5439 O   0  0  0  0  0  2           0  0  0
    0.7468    2.6048   -0.9349 O   0  0  0  0  0  2           0  0  0
    1.4518   -0.0000    0.0000 N   0  0  0  0  0  3           0  0  0
    3.5350   -0.7729   -0.0069 N   0  0  0  0  0  3           0  0  0
    3.5513    0.5972   -0.0012 C   0  0  0  0  0  4           0  0  0
   -2.1459   -3.4004    3.2882 C   0  0  0  0  0  4           0  0  0
   -1.3349   -1.1953    3.3504 C   0  0  0  0  0  4           0  0  0
    2.2633   -1.1181   -0.0000 C   0  0  0  0  0  4           0  0  0
    2.2688    1.1136    0.0114 C   0  0  0  0  0  4           0  0  0
   -1.4615   -4.6137    3.1131 C   0  0  0  0  0  4           0  0  0
   -0.5421    0.0000    1.3968 C   0  0  0  0  0  4           0  0  0
   -0.7994   -1.2075    2.0598 C   0  0  0  0  0  4           0  0  0
   -3.3979   -3.2106    2.6874 C   0  0  0  0  0  4           0  0  0
   -1.5914    0.0087    4.0065 C   0  0  0  0  0  4           0  0  0
   -2.0524   -5.6360    2.3569 C   0  0  0  0  0  4           0  0  0
   -0.8253    1.2085    2.0512 C   0  0  0  0  0  4           0  0  0
   -1.3411    1.2112    3.3497 C   0  0  0  0  0  4           0  0  0
   -3.9796   -4.2362    1.9433 C   0  0  0  0  0  4           0  0  0
   -3.3095   -5.4466    1.7805 C   0  0  0  0  0  4           0  0  0
   -0.1375   -4.8079    3.6950 C   0  0  0  0  0  4           0  0  0
    1.7894    2.5112    0.0246 C   0  0  0  0  0  4           0  0  0
   -0.0000    0.0000    0.0000 C   0  0  0  0  0  4           0  0  0
    1.7676   -2.5213   -0.0019 C   0  0  0  0  0  4           0  0  0
    2.5159   -3.4005   -0.9993 C   0  0  0  0  0  4           0  0  0
    1.9885   -4.8320   -0.9807 C   0  0  0  0  0  4           0  0  0
    2.7314   -5.7120   -1.9734 C   0  0  0  0  0  4           0  0  0
  1  8  1  0     0  0
  2  9  1  0     0  0
  2 10  1  0     0  0
  3 23  2  0     0  0
  4 23  1  0     0  0
  5 24  1  0     0  0
  6 11  1  0     0  0
  6 12  1  0     0  0
  6 25  1  0     0  0
  7  8  1  0     0  0
  7 11  2  0     0  0
  8 12  2  0     0  0
  9 13  1  0     0  0
  9 16  2  0     0  0
 10 15  2  0     0  0
 10 17  1  0     0  0
 11 26  1  0     0  0
 12 24  1  0     0  0
 13 18  2  0     0  0
 13 23  1  0     0  0
 14 15  1  0     0  0
 14 19  2  0     0  0
 14 25  1  0     0  0
 16 21  1  0     0  0
 17 20  2  0     0  0
 18 22  1  0     0  0
 19 20  1  0     0  0
 21 22  2  0     0  0
 26 27  1  0     0  0
 27 28  1  0     0  0
 28 29  1  0     0  0
M  END
> <standard_type>
pIC50

> <# Confs.>
25

> <canonical_smiles>
ClC(N=C1CCCC)=C(CO)N1CC2=CC=CC(OC3=CC=CC=C3C(O)=O)=C2

> <standard_relation>
=

> <Publication_ID>
nan

> <predicted_activity_value>
7.3979400086720375

> <actual_activity_value>
6.3979400086720375

> <Compound>
12

> <standard_units>
nM

> hash
1572487227986651878

$$$$
12_
XXILIB    08252103503D 0   0.00000     0.00000

 29 31  0     1  0            999 V2000
    5.0124    1.4761   -0.0112 Cl  0  0  0  0  0  1           0  0  0
    0.0216   -1.6877    4.6143 O   0  0  0  0  0  2           0  0  0
    2.5499   -1.6487    5.6055 O   0  0  0  0  0  2           0  0  0
    3.8526   -2.8977    4.1861 O   0  0  0  0  0  2           0  0  0
    1.6548    2.9199   -1.3286 O   0  0  0  0  0  2           0  0  0
    1.4518   -0.0000    0.0000 N   0  0  0  0  0  3           0  0  0
    3.5350   -0.7729   -0.0069 N   0  0  0  0  0  3           0  0  0
    3.5513    0.5972   -0.0012 C   0  0  0  0  0  4           0  0  0
    0.3171   -2.9778    4.2441 C   0  0  0  0  0  4           0  0  0
   -0.5381   -0.8680    3.6597 C   0  0  0  0  0  4           0  0  0
    2.2633   -1.1181   -0.0000 C   0  0  0  0  0  4           0  0  0
    2.2688    1.1136    0.0114 C   0  0  0  0  0  4           0  0  0
    1.6444   -3.4294    4.3185 C   0  0  0  0  0  4           0  0  0
   -0.5421    0.0000    1.3968 C   0  0  0  0  0  4           0  0  0
   -0.0034   -0.8538    2.3687 C   0  0  0  0  0  4           0  0  0
   -0.6821   -3.8226    3.7414 C   0  0  0  0  0  4           0  0  0
   -1.5879   -0.0179    4.0079 C   0  0  0  0  0  4           0  0  0
    1.9524   -4.7352    3.9112 C   0  0  0  0  0  4           0  0  0
   -1.6145    0.8353    1.7449 C   0  0  0  0  0  4           0  0  0
   -2.1291    0.8294    3.0439 C   0  0  0  0  0  4           0  0  0
   -0.3660   -5.1216    3.3458 C   0  0  0  0  0  4           0  0  0
    0.9475   -5.5775    3.4326 C   0  0  0  0  0  4           0  0  0
    2.7018   -2.5451    4.7969 C   0  0  0  0  0  4           0  0  0
    1.7894    2.5112    0.0246 C   0  0  0  0  0  4           0  0  0
    0.0000    0.0000    0.0000 C   0  0  0  0  0  4           0  0  0
    1.7676   -2.5213   -0.0019 C   0  0  0  0  0  4           0  0  0
    2.5159   -3.4005   -0.9993 C   0  0  0  0  0  4           0  0  0
    1.9885   -4.8320   -0.9807 C   0  0  0  0  0  4           0  0  0
    2.7314   -5.7120   -1.9734 C   0  0  0  0  0  4           0  0  0
  1  8  1  0     0  0
  2  9  1  0     0  0
  2 10  1  0     0  0
  3 23  2  0     0  0
  4 23  1  0     0  0
  5 24  1  0     0  0
  6 11  1  0     0  0
  6 12  1  0     0  0
  6 25  1  0     0  0
  7  8  1  0     0  0
  7 11  2  0     0  0
  8 12  2  0     0  0
  9 13  1  0     0  0
  9 16  2  0     0  0
 10 15  2  0     0  0
 10 17  1  0     0  0
 11 26  1  0     0  0
 12 24  1  0     0  0
 13 18  2  0     0  0
 13 23  1  0     0  0
 14 15  1  0     0  0
 14 19  2  0     0  0
 14 25  1  0     0  0
 16 21  1  0     0  0
 17 20  2  0     0  0
 18 22  1  0     0  0
 19 20  1  0     0  0
 21 22  2  0     0  0
 26 27  1  0     0  0
 27 28  1  0     0  0
 28 29  1  0     0  0
M  END
> <standard_type>
pIC50

> <# Confs.>
25

> <canonical_smiles>
ClC(N=C1CCCC)=C(CO)N1CC2=CC=CC(OC3=CC=CC=C3C(O)=O)=C2

> <standard_relation>
=

> <Publication_ID>
nan

> <predicted_activity_value>
7.3979400086720375

> <actual_activity_value>
6.3979400086720375

> <Compound>
12

> <standard_units>
nM

> hash
1572487227986651878

$$$$
12_
XXILIB    08252103503D 0   0.00000     0.00000

 29 31  0     1  0            999 V2000
    5.0124   -1.4761    0.0112 Cl  0  0  0  0  0  1           0  0  0
    0.0216   -1.6877    4.6143 O   0  0  0  0  0  2           0  0  0
    0.2158   -4.3914    4.5609 O   0  0  0  0  0  2           0  0  0
    2.1445   -4.9241    3.4348 O   0  0  0  0  0  2           0  0  0
    1.6527   -2.8936   -1.3853 O   0  0  0  0  0  2           0  0  0
    1.4518    0.0000    0.0000 N   0  0  0  0  0  3           0  0  0
    3.5350    0.7729    0.0069 N   0  0  0  0  0  3           0  0  0
    3.5513   -0.5972    0.0012 C   0  0  0  0  0  4           0  0  0
    1.3928   -1.7081    4.7035 C   0  0  0  0  0  4           0  0  0
   -0.5381   -0.8680    3.6597 C   0  0  0  0  0  4           0  0  0
    2.2633    1.1181    0.0000 C   0  0  0  0  0  4           0  0  0
    2.2688   -1.1136   -0.0114 C   0  0  0  0  0  4           0  0  0
    2.0786   -2.9169    4.5040 C   0  0  0  0  0  4           0  0  0
   -0.5421    0.0000    1.3968 C   0  0  0  0  0  4           0  0  0
   -0.0034   -0.8538    2.3687 C   0  0  0  0  0  4           0  0  0
    2.1030   -0.5494    5.0468 C   0  0  0  0  0  4           0  0  0
   -1.5879   -0.0179    4.0079 C   0  0  0  0  0  4           0  0  0
    3.4751   -2.9458    4.6258 C   0  0  0  0  0  4           0  0  0
   -1.6145    0.8353    1.7449 C   0  0  0  0  0  4           0  0  0
   -2.1291    0.8294    3.0439 C   0  0  0  0  0  4           0  0  0
    3.4923   -0.5877    5.1584 C   0  0  0  0  0  4           0  0  0
    4.1767   -1.7823    4.9462 C   0  0  0  0  0  4           0  0  0
    1.3475   -4.1402    4.1910 C   0  0  0  0  0  4           0  0  0
    1.7894   -2.5112   -0.0246 C   0  0  0  0  0  4           0  0  0
    0.0000    0.0000    0.0000 C   0  0  0  0  0  4           0  0  0
    1.7676    2.5213    0.0019 C   0  0  0  0  0  4           0  0  0
    2.5159    3.4005    0.9993 C   0  0  0  0  0  4           0  0  0
    2.3675    2.8729    2.4232 C   0  0  0  0  0  4           0  0  0
    3.1118    3.7461    3.4208 C   0  0  0  0  0  4           0  0  0
  1  8  1  0     0  0
  2  9  1  0     0  0
  2 10  1  0     0  0
  3 23  2  0     0  0
  4 23  1  0     0  0
  5 24  1  0     0  0
  6 11  1  0     0  0
  6 12  1  0     0  0
  6 25  1  0     0  0
  7  8  1  0     0  0
  7 11  2  0     0  0
  8 12  2  0     0  0
  9 13  1  0     0  0
  9 16  2  0     0  0
 10 15  2  0     0  0
 10 17  1  0     0  0
 11 26  1  0     0  0
 12 24  1  0     0  0
 13 18  2  0     0  0
 13 23  1  0     0  0
 14 15  1  0     0  0
 14 19  2  0     0  0
 14 25  1  0     0  0
 16 21  1  0     0  0
 17 20  2  0     0  0
 18 22  1  0     0  0
 19 20  1  0     0  0
 21 22  2  0     0  0
 26 27  1  0     0  0
 27 28  1  0     0  0
 28 29  1  0     0  0
M  END
> <standard_type>
pIC50

> <# Confs.>
25

> <canonical_smiles>
ClC(N=C1CCCC)=C(CO)N1CC2=CC=CC(OC3=CC=CC=C3C(O)=O)=C2

> <standard_relation>
=

> <Publication_ID>
nan

> <predicted_activity_value>
7.3979400086720375

> <actual_activity_value>
6.3979400086720375

> <Compound>
12

> <standard_units>
nM

> hash
1572487227986651878

$$$$
12_
XXILIB    08252103503D 0   0.00000     0.00000

 29 31  0     1  0            999 V2000
    5.0124   -1.4761    0.0112 Cl  0  0  0  0  0  1           0  0  0
    0.0216   -1.6877    4.6143 O   0  0  0  0  0  2           0  0  0
    2.5499   -1.6487    5.6055 O   0  0  0  0  0  2           0  0  0
    3.8526   -2.8977    4.1861 O   0  0  0  0  0  2           0  0  0
    1.6527   -2.8936   -1.3853 O   0  0  0  0  0  2           0  0  0
    1.4518   -0.0000   -0.0000 N   0  0  0  0  0  3           0  0  0
    3.5350    0.7729    0.0069 N   0  0  0  0  0  3           0  0  0
    3.5513   -0.5972    0.0012 C   0  0  0  0  0  4           0  0  0
    0.3171   -2.9778    4.2441 C   0  0  0  0  0  4           0  0  0
   -0.5381   -0.8680    3.6597 C   0  0  0  0  0  4           0  0  0
    2.2633    1.1181    0.0000 C   0  0  0  0  0  4           0  0  0
    2.2688   -1.1136   -0.0114 C   0  0  0  0  0  4           0  0  0
    1.6444   -3.4294    4.3185 C   0  0  0  0  0  4           0  0  0
   -0.5421    0.0000    1.3968 C   0  0  0  0  0  4           0  0  0
   -0.0034   -0.8538    2.3687 C   0  0  0  0  0  4           0  0  0
   -0.6821   -3.8226    3.7414 C   0  0  0  0  0  4           0  0  0
   -1.5879   -0.0179    4.0079 C   0  0  0  0  0  4           0  0  0
    1.9524   -4.7352    3.9112 C   0  0  0  0  0  4           0  0  0
   -1.6145    0.8353    1.7449 C   0  0  0  0  0  4           0  0  0
   -2.1291    0.8294    3.0439 C   0  0  0  0  0  4           0  0  0
   -0.3660   -5.1216    3.3458 C   0  0  0  0  0  4           0  0  0
    0.9475   -5.5775    3.4326 C   0  0  0  0  0  4           0  0  0
    2.7018   -2.5451    4.7969 C   0  0  0  0  0  4           0  0  0
    1.7894   -2.5112   -0.0246 C   0  0  0  0  0  4           0  0  0
    0.0000    0.0000    0.0000 C   0  0  0  0  0  4           0  0  0
    1.7676    2.5213    0.0019 C   0  0  0  0  0  4           0  0  0
    1.5724    3.0704   -1.4082 C   0  0  0  0  0  4           0  0  0
    1.0643    4.5087   -1.3773 C   0  0  0  0  0  4           0  0  0
    0.8682    5.0601   -2.7806 C   0  0  0  0  0  4           0  0  0
  1  8  1  0     0  0
  2  9  1  0     0  0
  2 10  1  0     0  0
  3 23  2  0     0  0
  4 23  1  0     0  0
  5 24  1  0     0  0
  6 11  1  0     0  0
  6 12  1  0     0  0
  6 25  1  0     0  0
  7  8  1  0     0  0
  7 11  2  0     0  0
  8 12  2  0     0  0
  9 13  1  0     0  0
  9 16  2  0     0  0
 10 15  2  0     0  0
 10 17  1  0     0  0
 11 26  1  0     0  0
 12 24  1  0     0  0
 13 18  2  0     0  0
 13 23  1  0     0  0
 14 15  1  0     0  0
 14 19  2  0     0  0
 14 25  1  0     0  0
 16 21  1  0     0  0
 17 20  2  0     0  0
 18 22  1  0     0  0
 19 20  1  0     0  0
 21 22  2  0     0  0
 26 27  1  0     0  0
 27 28  1  0     0  0
 28 29  1  0     0  0
M  END
> <standard_type>
pIC50

> <# Confs.>
25

> <canonical_smiles>
ClC(N=C1CCCC)=C(CO)N1CC2=CC=CC(OC3=CC=CC=C3C(O)=O)=C2

> <standard_relation>
=

> <Publication_ID>
nan

> <predicted_activity_value>
7.3979400086720375

> <actual_activity_value>
6.3979400086720375

> <Compound>
12

> <standard_units>
nM

> hash
1572487227986651878

$$$$
12_
XXILIB    08252103503D 0   0.00000     0.00000

 29 31  0     1  0            999 V2000
    5.0124    1.4761   -0.0112 Cl  0  0  0  0  0  1           0  0  0
   -1.5549    2.3881    4.0025 O   0  0  0  0  0  2           0  0  0
   -2.9438    4.1322    1.9728 O   0  0  0  0  0  2           0  0  0
   -2.9167    5.8553    3.4901 O   0  0  0  0  0  2           0  0  0
    0.7468    2.6048   -0.9349 O   0  0  0  0  0  2           0  0  0
    1.4518    0.0000   -0.0000 N   0  0  0  0  0  3           0  0  0
    3.5350   -0.7729   -0.0069 N   0  0  0  0  0  3           0  0  0
    3.5513    0.5972   -0.0012 C   0  0  0  0  0  4           0  0  0
   -0.6342    3.4004    3.8749 C   0  0  0  0  0  4           0  0  0
   -1.2748    1.1953    3.3737 C   0  0  0  0  0  4           0  0  0
    2.2633   -1.1181    0.0000 C   0  0  0  0  0  4           0  0  0
    2.2688    1.1136    0.0114 C   0  0  0  0  0  4           0  0  0
   -1.0213    4.6137    3.2840 C   0  0  0  0  0  4           0  0  0
   -0.5421    0.0000    1.3968 C   0  0  0  0  0  4           0  0  0
   -0.7994    1.2075    2.0598 C   0  0  0  0  0  4           0  0  0
    0.6954    3.2106    4.2760 C   0  0  0  0  0  4           0  0  0
   -1.5280   -0.0087    4.0311 C   0  0  0  0  0  4           0  0  0
   -0.0749    5.6360    3.1244 C   0  0  0  0  0  4           0  0  0
   -0.7745   -1.2085    2.0709 C   0  0  0  0  0  4           0  0  0
   -1.2697   -1.2112    3.3774 C   0  0  0  0  0  4           0  0  0
    1.6267    4.2362    4.1192 C   0  0  0  0  0  4           0  0  0
    1.2419    5.4466    3.5469 C   0  0  0  0  0  4           0  0  0
   -2.3911    4.8079    2.8203 C   0  0  0  0  0  4           0  0  0
    1.7894    2.5112    0.0246 C   0  0  0  0  0  4           0  0  0
    0.0000    0.0000    0.0000 C   0  0  0  0  0  4           0  0  0
    1.7676   -2.5213   -0.0019 C   0  0  0  0  0  4           0  0  0
    2.5135   -3.4023    0.9959 C   0  0  0  0  0  4           0  0  0
    1.9861   -4.8337    0.9734 C   0  0  0  0  0  4           0  0  0
    2.7266   -5.7155    1.9663 C   0  0  0  0  0  4           0  0  0
  1  8  1  0     0  0
  2  9  1  0     0  0
  2 10  1  0     0  0
  3 23  2  0     0  0
  4 23  1  0     0  0
  5 24  1  0     0  0
  6 11  1  0     0  0
  6 12  1  0     0  0
  6 25  1  0     0  0
  7  8  1  0     0  0
  7 11  2  0     0  0
  8 12  2  0     0  0
  9 13  1  0     0  0
  9 16  2  0     0  0
 10 15  2  0     0  0
 10 17  1  0     0  0
 11 26  1  0     0  0
 12 24  1  0     0  0
 13 18  2  0     0  0
 13 23  1  0     0  0
 14 15  1  0     0  0
 14 19  2  0     0  0
 14 25  1  0     0  0
 16 21  1  0     0  0
 17 20  2  0     0  0
 18 22  1  0     0  0
 19 20  1  0     0  0
 21 22  2  0     0  0
 26 27  1  0     0  0
 27 28  1  0     0  0
 28 29  1  0     0  0
M  END
> <standard_type>
pIC50

> <# Confs.>
25

> <canonical_smiles>
ClC(N=C1CCCC)=C(CO)N1CC2=CC=CC(OC3=CC=CC=C3C(O)=O)=C2

> <standard_relation>
=

> <Publication_ID>
nan

> <predicted_activity_value>
7.3979400086720375

> <actual_activity_value>
6.3979400086720375

> <Compound>
12

> <standard_units>
nM

> hash
1572487227986651878

$$$$
1_
XXILIB    08252103503D 0   0.00000     0.00000

 31 34  0     1  0            999 V2000
    5.0450    1.1931    0.7581 Cl  0  0  0  0  0  1           0  0  0
    1.2178    2.8181    1.4807 O   0  0  0  0  0  2           0  0  0
    2.5112    1.6312    2.9118 O   0  0  0  0  0  2           0  0  0
    1.9642    1.5678    5.9658 N   0  0  0  0  0  3           0  0  0
    2.1994    0.5462    6.7781 N   0  0  0  0  0  3           0  0  0
    0.6358    1.5747    5.7919 N   0  0  0  0  0  3           0  0  0
    1.0307   -0.0938    7.1205 N   0  0  0  0  0  3           0  0  0
    1.4535    0.0000   -0.0000 N   0  0  0  0  0  3           0  0  0
    3.5186   -0.4990   -0.6510 N   0  0  0  0  0  3           0  0  0
    3.5558    0.5136    0.2684 C   0  0  0  0  0  4           0  0  0
    0.0630    0.5547    6.5027 C   0  0  0  0  0  4           0  0  0
    2.2476   -0.8013   -0.8013 C   0  0  0  0  0  4           0  0  0
    2.2852    0.8472    0.7202 C   0  0  0  0  0  4           0  0  0
   -1.3532    0.2817    6.5318 C   0  0  0  0  0  4           0  0  0
   -2.1218   -0.0314    5.3814 C   0  0  0  0  0  4           0  0  0
   -1.5873   -0.0234    4.0250 C   0  0  0  0  0  4           0  0  0
   -0.5425    0.0000    1.3969 C   0  0  0  0  0  4           0  0  0
   -1.9880    0.3165    7.7901 C   0  0  0  0  0  4           0  0  0
   -3.4920   -0.3306    5.5519 C   0  0  0  0  0  4           0  0  0
   -0.5214   -0.8627    3.6687 C   0  0  0  0  0  4           0  0  0
   -2.1271    0.8236    3.0455 C   0  0  0  0  0  4           0  0  0
   -0.0060   -0.8523    2.3697 C   0  0  0  0  0  4           0  0  0
   -1.6124    0.8333    1.7459 C   0  0  0  0  0  4           0  0  0
   -3.3449    0.0256    7.9271 C   0  0  0  0  0  4           0  0  0
   -4.0963   -0.3044    6.8084 C   0  0  0  0  0  4           0  0  0
    1.9418    1.8525    1.6930 C   0  0  0  0  0  4           0  0  0
    0.0000    0.0000    0.0000 C   0  0  0  0  0  4           0  0  0
    1.7418   -1.8605   -1.7180 C   0  0  0  0  0  4           0  0  0
    1.6401   -3.2203   -1.0337 C   0  0  0  0  0  4           0  0  0
    1.1248   -4.3438   -1.9340 C   0  0  0  0  0  4           0  0  0
    1.0497   -5.6658   -1.1877 C   0  0  0  0  0  4           0  0  0
  1 10  1  0     0  0
  2 26  2  0     0  0
  3 26  1  0     0  0
  4  5  2  0     0  0
  4  6  1  0     0  0
  5  7  1  0     0  0
  6 11  1  0     0  0
  7 11  2  0     0  0
  8 12  1  0     0  0
  8 13  1  0     0  0
  8 27  1  0     0  0
  9 10  1  0     0  0
  9 12  2  0     0  0
 10 13  2  0     0  0
 11 14  1  0     0  0
 12 28  1  0     0  0
 13 26  1  0     0  0
 14 15  1  0     0  0
 14 18  2  0     0  0
 15 16  1  0     0  0
 15 19  2  0     0  0
 16 20  2  0     0  0
 16 21  1  0     0  0
 17 22  2  0     0  0
 17 23  1  0     0  0
 17 27  1  0     0  0
 18 24  1  0     0  0
 19 25  1  0     0  0
 20 22  1  0     0  0
 21 23  2  0     0  0
 24 25  2  0     0  0
 28 29  1  0     0  0
 29 30  1  0     0  0
 30 31  1  0     0  0
M  END
> <standard_type>
pIC50

> <# Confs.>
25

> <canonical_smiles>
ClC(N=C1CCCC)=C(C(O)=O)N1CC2=CC=C(C3=CC=CC=C3C4=NN=NN4)C=C2

> <standard_relation>
=

> <Publication_ID>
Krovat_2003

> <predicted_activity_value>
8.130768280269024

> <actual_activity_value>
8.886056647693163

> <Compound>
1

> <standard_units>
nM

> hash
1800136262960392497

$$$$
1_
XXILIB    08252103503D 0   0.00000     0.00000

 31 34  0     1  0            999 V2000
    5.0450    1.1931    0.7581 Cl  0  0  0  0  0  1           0  0  0
    1.2178    2.8181    1.4807 O   0  0  0  0  0  2           0  0  0
    2.5112    1.6312    2.9118 O   0  0  0  0  0  2           0  0  0
    1.9642    1.5678    5.9658 N   0  0  0  0  0  3           0  0  0
    2.1994    0.5462    6.7781 N   0  0  0  0  0  3           0  0  0
    0.6358    1.5747    5.7919 N   0  0  0  0  0  3           0  0  0
    1.0307   -0.0938    7.1205 N   0  0  0  0  0  3           0  0  0
    1.4535    0.0000   -0.0000 N   0  0  0  0  0  3           0  0  0
    3.5186   -0.4990   -0.6510 N   0  0  0  0  0  3           0  0  0
    3.5558    0.5136    0.2684 C   0  0  0  0  0  4           0  0  0
    0.0630    0.5547    6.5027 C   0  0  0  0  0  4           0  0  0
    2.2476   -0.8013   -0.8013 C   0  0  0  0  0  4           0  0  0
    2.2852    0.8472    0.7202 C   0  0  0  0  0  4           0  0  0
   -1.3532    0.2817    6.5318 C   0  0  0  0  0  4           0  0  0
   -2.1218   -0.0314    5.3814 C   0  0  0  0  0  4           0  0  0
   -1.5873   -0.0234    4.0250 C   0  0  0  0  0  4           0  0  0
   -0.5425    0.0000    1.3969 C   0  0  0  0  0  4           0  0  0
   -1.9880    0.3165    7.7901 C   0  0  0  0  0  4           0  0  0
   -3.4920   -0.3306    5.5519 C   0  0  0  0  0  4           0  0  0
   -0.5214   -0.8627    3.6687 C   0  0  0  0  0  4           0  0  0
   -2.1271    0.8236    3.0455 C   0  0  0  0  0  4           0  0  0
   -0.0060   -0.8523    2.3697 C   0  0  0  0  0  4           0  0  0
   -1.6124    0.8333    1.7459 C   0  0  0  0  0  4           0  0  0
   -3.3449    0.0256    7.9271 C   0  0  0  0  0  4           0  0  0
   -4.0963   -0.3044    6.8084 C   0  0  0  0  0  4           0  0  0
    1.9418    1.8525    1.6930 C   0  0  0  0  0  4           0  0  0
    0.0000    0.0000    0.0000 C   0  0  0  0  0  4           0  0  0
    1.7418   -1.8605   -1.7180 C   0  0  0  0  0  4           0  0  0
    1.4493   -1.3262   -3.1168 C   0  0  0  0  0  4           0  0  0
    0.9266   -2.3764   -4.0979 C   0  0  0  0  0  4           0  0  0
    0.6577   -1.7745   -5.4674 C   0  0  0  0  0  4           0  0  0
  1 10  1  0     0  0
  2 26  2  0     0  0
  3 26  1  0     0  0
  4  5  2  0     0  0
  4  6  1  0     0  0
  5  7  1  0     0  0
  6 11  1  0     0  0
  7 11  2  0     0  0
  8 12  1  0     0  0
  8 13  1  0     0  0
  8 27  1  0     0  0
  9 10  1  0     0  0
  9 12  2  0     0  0
 10 13  2  0     0  0
 11 14  1  0     0  0
 12 28  1  0     0  0
 13 26  1  0     0  0
 14 15  1  0     0  0
 14 18  2  0     0  0
 15 16  1  0     0  0
 15 19  2  0     0  0
 16 20  2  0     0  0
 16 21  1  0     0  0
 17 22  2  0     0  0
 17 23  1  0     0  0
 17 27  1  0     0  0
 18 24  1  0     0  0
 19 25  1  0     0  0
 20 22  1  0     0  0
 21 23  2  0     0  0
 24 25  2  0     0  0
 28 29  1  0     0  0
 29 30  1  0     0  0
 30 31  1  0     0  0
M  END
> <standard_type>
pIC50

> <# Confs.>
25

> <canonical_smiles>
ClC(N=C1CCCC)=C(C(O)=O)N1CC2=CC=C(C3=CC=CC=C3C4=NN=NN4)C=C2

> <standard_relation>
=

> <Publication_ID>
Krovat_2003

> <predicted_activity_value>
8.130768280269024

> <actual_activity_value>
8.886056647693163

> <Compound>
1

> <standard_units>
nM

> hash
1800136262960392497

$$$$
1_
XXILIB    08252103503D 0   0.00000     0.00000

 31 34  0     1  0            999 V2000
    5.0450    1.3797   -0.3076 Cl  0  0  0  0  0  1           0  0  0
    1.2178    3.0397   -0.9457 O   0  0  0  0  0  2           0  0  0
    2.5112    3.2124    0.9055 O   0  0  0  0  0  2           0  0  0
    2.0003    1.5437    5.7018 N   0  0  0  0  0  3           0  0  0
    1.6974    2.4006    6.6676 N   0  0  0  0  0  3           0  0  0
    0.9002    0.7956    5.5434 N   0  0  0  0  0  3           0  0  0
    0.4141    2.2015    7.1220 N   0  0  0  0  0  3           0  0  0
    1.4535   -0.0000   -0.0000 N   0  0  0  0  0  3           0  0  0
    3.5186   -0.8131   -0.1075 N   0  0  0  0  0  3           0  0  0
    3.5558    0.5529   -0.1734 C   0  0  0  0  0  4           0  0  0
   -0.0741    1.2012    6.4150 C   0  0  0  0  0  4           0  0  0
    2.2476   -1.1332   -0.0000 C   0  0  0  0  0  4           0  0  0
    2.2852    1.1083   -0.0898 C   0  0  0  0  0  4           0  0  0
   -1.3835    0.6024    6.5038 C   0  0  0  0  0  4           0  0  0
   -2.0539    0.0012    5.4078 C   0  0  0  0  0  4           0  0  0
   -1.5361    0.0006    4.0448 C   0  0  0  0  0  4           0  0  0
   -0.5425    0.0000    1.3969 C   0  0  0  0  0  4           0  0  0
   -2.0089    0.6106    7.7673 C   0  0  0  0  0  4           0  0  0
   -3.3124   -0.5978    5.6388 C   0  0  0  0  0  4           0  0  0
   -1.2930    1.2055    3.3691 C   0  0  0  0  0  4           0  0  0
   -1.2692   -1.2048    3.3787 C   0  0  0  0  0  4           0  0  0
   -0.8005    1.2053    2.0611 C   0  0  0  0  0  4           0  0  0
   -0.7758   -1.2051    2.0708 C   0  0  0  0  0  4           0  0  0
   -3.2564    0.0194    7.9639 C   0  0  0  0  0  4           0  0  0
   -3.9060   -0.5908    6.9006 C   0  0  0  0  0  4           0  0  0
    1.9418    2.5071   -0.1127 C   0  0  0  0  0  4           0  0  0
    0.0000    0.0000    0.0000 C   0  0  0  0  0  4           0  0  0
    1.7418   -2.5304    0.1007 C   0  0  0  0  0  4           0  0  0
    2.4132   -3.4644   -0.9015 C   0  0  0  0  0  4           0  0  0
    2.2154   -3.0681   -2.3652 C   0  0  0  0  0  4           0  0  0
    2.9097   -4.0406   -3.3045 C   0  0  0  0  0  4           0  0  0
  1 10  1  0     0  0
  2 26  2  0     0  0
  3 26  1  0     0  0
  4  5  2  0     0  0
  4  6  1  0     0  0
  5  7  1  0     0  0
  6 11  1  0     0  0
  7 11  2  0     0  0
  8 12  1  0     0  0
  8 13  1  0     0  0
  8 27  1  0     0  0
  9 10  1  0     0  0
  9 12  2  0     0  0
 10 13  2  0     0  0
 11 14  1  0     0  0
 12 28  1  0     0  0
 13 26  1  0     0  0
 14 15  1  0     0  0
 14 18  2  0     0  0
 15 16  1  0     0  0
 15 19  2  0     0  0
 16 20  2  0     0  0
 16 21  1  0     0  0
 17 22  2  0     0  0
 17 23  1  0     0  0
 17 27  1  0     0  0
 18 24  1  0     0  0
 19 25  1  0     0  0
 20 22  1  0     0  0
 21 23  2  0     0  0
 24 25  2  0     0  0
 28 29  1  0     0  0
 29 30  1  0     0  0
 30 31  1  0     0  0
M  END
> <standard_type>
pIC50

> <# Confs.>
25

> <canonical_smiles>
ClC(N=C1CCCC)=C(C(O)=O)N1CC2=CC=C(C3=CC=CC=C3C4=NN=NN4)C=C2

> <standard_relation>
=

> <Publication_ID>
Krovat_2003

> <predicted_activity_value>
8.130768280269024

> <actual_activity_value>
8.886056647693163

> <Compound>
1

> <standard_units>
nM

> hash
1800136262960392497

$$$$
1_
XXILIB    08252103503D 0   0.00000     0.00000

 31 34  0     1  0            999 V2000
    5.0450    1.1931    0.7581 Cl  0  0  0  0  0  1           0  0  0
    1.2178    2.8181    1.4807 O   0  0  0  0  0  2           0  0  0
    2.5112    1.6312    2.9118 O   0  0  0  0  0  2           0  0  0
    1.9642    1.5678    5.9658 N   0  0  0  0  0  3           0  0  0
    2.1994    0.5462    6.7781 N   0  0  0  0  0  3           0  0  0
    0.6358    1.5747    5.7919 N   0  0  0  0  0  3           0  0  0
    1.0307   -0.0938    7.1205 N   0  0  0  0  0  3           0  0  0
    1.4535    0.0000    0.0000 N   0  0  0  0  0  3           0  0  0
    3.5186   -0.4990   -0.6510 N   0  0  0  0  0  3           0  0  0
    3.5558    0.5136    0.2684 C   0  0  0  0  0  4           0  0  0
    0.0630    0.5547    6.5027 C   0  0  0  0  0  4           0  0  0
    2.2476   -0.8013   -0.8013 C   0  0  0  0  0  4           0  0  0
    2.2852    0.8472    0.7202 C   0  0  0  0  0  4           0  0  0
   -1.3532    0.2817    6.5318 C   0  0  0  0  0  4           0  0  0
   -2.1218   -0.0314    5.3814 C   0  0  0  0  0  4           0  0  0
   -1.5873   -0.0234    4.0250 C   0  0  0  0  0  4           0  0  0
   -0.5425    0.0000    1.3969 C   0  0  0  0  0  4           0  0  0
   -1.9880    0.3165    7.7901 C   0  0  0  0  0  4           0  0  0
   -3.4920   -0.3306    5.5519 C   0  0  0  0  0  4           0  0  0
   -0.5214   -0.8627    3.6687 C   0  0  0  0  0  4           0  0  0
   -2.1271    0.8236    3.0455 C   0  0  0  0  0  4           0  0  0
   -0.0060   -0.8523    2.3697 C   0  0  0  0  0  4           0  0  0
   -1.6124    0.8333    1.7459 C   0  0  0  0  0  4           0  0  0
   -3.3449    0.0256    7.9271 C   0  0  0  0  0  4           0  0  0
   -4.0963   -0.3044    6.8084 C   0  0  0  0  0  4           0  0  0
    1.9418    1.8525    1.6930 C   0  0  0  0  0  4           0  0  0
    0.0000    0.0000    0.0000 C   0  0  0  0  0  4           0  0  0
    1.7418   -1.8605   -1.7180 C   0  0  0  0  0  4           0  0  0
    2.8684   -2.5682   -2.4647 C   0  0  0  0  0  4           0  0  0
    2.4006   -3.6665   -3.4205 C   0  0  0  0  0  4           0  0  0
    3.5732   -4.3263   -4.1277 C   0  0  0  0  0  4           0  0  0
  1 10  1  0     0  0
  2 26  2  0     0  0
  3 26  1  0     0  0
  4  5  2  0     0  0
  4  6  1  0     0  0
  5  7  1  0     0  0
  6 11  1  0     0  0
  7 11  2  0     0  0
  8 12  1  0     0  0
  8 13  1  0     0  0
  8 27  1  0     0  0
  9 10  1  0     0  0
  9 12  2  0     0  0
 10 13  2  0     0  0
 11 14  1  0     0  0
 12 28  1  0     0  0
 13 26  1  0     0  0
 14 15  1  0     0  0
 14 18  2  0     0  0
 15 16  1  0     0  0
 15 19  2  0     0  0
 16 20  2  0     0  0
 16 21  1  0     0  0
 17 22  2  0     0  0
 17 23  1  0     0  0
 17 27  1  0     0  0
 18 24  1  0     0  0
 19 25  1  0     0  0
 20 22  1  0     0  0
 21 23  2  0     0  0
 24 25  2  0     0  0
 28 29  1  0     0  0
 29 30  1  0     0  0
 30 31  1  0     0  0
M  END
> <standard_type>
pIC50

> <# Confs.>
25

> <canonical_smiles>
ClC(N=C1CCCC)=C(C(O)=O)N1CC2=CC=C(C3=CC=CC=C3C4=NN=NN4)C=C2

> <standard_relation>
=

> <Publication_ID>
Krovat_2003

> <predicted_activity_value>
8.130768280269024

> <actual_activity_value>
8.886056647693163

> <Compound>
1

> <standard_units>
nM

> hash
1800136262960392497

$$$$
1_
XXILIB    08252103503D 0   0.00000     0.00000

 31 34  0     1  0            999 V2000
    5.0450    1.1931    0.7581 Cl  0  0  0  0  0  1           0  0  0
    1.2178    2.8181    1.4807 O   0  0  0  0  0  2           0  0  0
    2.5112    1.6312    2.9118 O   0  0  0  0  0  2           0  0  0
    1.9642    1.5678    5.9658 N   0  0  0  0  0  3           0  0  0
    2.1994    0.5462    6.7781 N   0  0  0  0  0  3           0  0  0
    0.6358    1.5747    5.7919 N   0  0  0  0  0  3           0  0  0
    1.0307   -0.0938    7.1205 N   0  0  0  0  0  3           0  0  0
    1.4535    0.0000   -0.0000 N   0  0  0  0  0  3           0  0  0
    3.5186   -0.4990   -0.6510 N   0  0  0  0  0  3           0  0  0
    3.5558    0.5136    0.2684 C   0  0  0  0  0  4           0  0  0
    0.0630    0.5547    6.5027 C   0  0  0  0  0  4           0  0  0
    2.2476   -0.8013   -0.8013 C   0  0  0  0  0  4           0  0  0
    2.2852    0.8472    0.7202 C   0  0  0  0  0  4           0  0  0
   -1.3532    0.2817    6.5318 C   0  0  0  0  0  4           0  0  0
   -2.1218   -0.0314    5.3814 C   0  0  0  0  0  4           0  0  0
   -1.5873   -0.0234    4.0250 C   0  0  0  0  0  4           0  0  0
   -0.5425    0.0000    1.3969 C   0  0  0  0  0  4           0  0  0
   -1.9880    0.3165    7.7901 C   0  0  0  0  0  4           0  0  0
   -3.4920   -0.3306    5.5519 C   0  0  0  0  0  4           0  0  0
   -0.5214   -0.8627    3.6687 C   0  0  0  0  0  4           0  0  0
   -2.1271    0.8236    3.0455 C   0  0  0  0  0  4           0  0  0
   -0.0060   -0.8523    2.3697 C   0  0  0  0  0  4           0  0  0
   -1.6124    0.8333    1.7459 C   0  0  0  0  0  4           0  0  0
   -3.3449    0.0256    7.9271 C   0  0  0  0  0  4           0  0  0
   -4.0963   -0.3044    6.8084 C   0  0  0  0  0  4           0  0  0
    1.9418    1.8525    1.6930 C   0  0  0  0  0  4           0  0  0
    0.0000    0.0000    0.0000 C   0  0  0  0  0  4           0  0  0
    1.7418   -1.8605   -1.7180 C   0  0  0  0  0  4           0  0  0
    1.4493   -1.3262   -3.1168 C   0  0  0  0  0  4           0  0  0
    2.6603   -0.7213   -3.8282 C   0  0  0  0  0  4           0  0  0
    2.2957   -0.2109   -5.2127 C   0  0  0  0  0  4           0  0  0
  1 10  1  0     0  0
  2 26  2  0     0  0
  3 26  1  0     0  0
  4  5  2  0     0  0
  4  6  1  0     0  0
  5  7  1  0     0  0
  6 11  1  0     0  0
  7 11  2  0     0  0
  8 12  1  0     0  0
  8 13  1  0     0  0
  8 27  1  0     0  0
  9 10  1  0     0  0
  9 12  2  0     0  0
 10 13  2  0     0  0
 11 14  1  0     0  0
 12 28  1  0     0  0
 13 26  1  0     0  0
 14 15  1  0     0  0
 14 18  2  0     0  0
 15 16  1  0     0  0
 15 19  2  0     0  0
 16 20  2  0     0  0
 16 21  1  0     0  0
 17 22  2  0     0  0
 17 23  1  0     0  0
 17 27  1  0     0  0
 18 24  1  0     0  0
 19 25  1  0     0  0
 20 22  1  0     0  0
 21 23  2  0     0  0
 24 25  2  0     0  0
 28 29  1  0     0  0
 29 30  1  0     0  0
 30 31  1  0     0  0
M  END
> <standard_type>
pIC50

> <# Confs.>
25

> <canonical_smiles>
ClC(N=C1CCCC)=C(C(O)=O)N1CC2=CC=C(C3=CC=CC=C3C4=NN=NN4)C=C2

> <standard_relation>
=

> <Publication_ID>
Krovat_2003

> <predicted_activity_value>
8.130768280269024

> <actual_activity_value>
8.886056647693163

> <Compound>
1

> <standard_units>
nM

> hash
1800136262960392497

$$$$
1_
XXILIB    08252103503D 0   0.00000     0.00000

 31 34  0     1  0            999 V2000
    5.0450    1.3797   -0.3076 Cl  0  0  0  0  0  1           0  0  0
    1.2178    3.0397   -0.9457 O   0  0  0  0  0  2           0  0  0
    2.5112    3.2124    0.9055 O   0  0  0  0  0  2           0  0  0
    2.0003    1.5437    5.7018 N   0  0  0  0  0  3           0  0  0
    1.6974    2.4006    6.6676 N   0  0  0  0  0  3           0  0  0
    0.9002    0.7956    5.5434 N   0  0  0  0  0  3           0  0  0
    0.4141    2.2015    7.1220 N   0  0  0  0  0  3           0  0  0
    1.4535   -0.0000   -0.0000 N   0  0  0  0  0  3           0  0  0
    3.5186   -0.8131   -0.1075 N   0  0  0  0  0  3           0  0  0
    3.5558    0.5529   -0.1734 C   0  0  0  0  0  4           0  0  0
   -0.0741    1.2012    6.4150 C   0  0  0  0  0  4           0  0  0
    2.2476   -1.1332   -0.0000 C   0  0  0  0  0  4           0  0  0
    2.2852    1.1083   -0.0898 C   0  0  0  0  0  4           0  0  0
   -1.3835    0.6024    6.5038 C   0  0  0  0  0  4           0  0  0
   -2.0539    0.0012    5.4078 C   0  0  0  0  0  4           0  0  0
   -1.5361    0.0006    4.0448 C   0  0  0  0  0  4           0  0  0
   -0.5425    0.0000    1.3969 C   0  0  0  0  0  4           0  0  0
   -2.0089    0.6106    7.7673 C   0  0  0  0  0  4           0  0  0
   -3.3124   -0.5978    5.6388 C   0  0  0  0  0  4           0  0  0
   -1.2930    1.2055    3.3691 C   0  0  0  0  0  4           0  0  0
   -1.2692   -1.2048    3.3787 C   0  0  0  0  0  4           0  0  0
   -0.8005    1.2053    2.0611 C   0  0  0  0  0  4           0  0  0
   -0.7758   -1.2051    2.0708 C   0  0  0  0  0  4           0  0  0
   -3.2564    0.0194    7.9639 C   0  0  0  0  0  4           0  0  0
   -3.9060   -0.5908    6.9006 C   0  0  0  0  0  4           0  0  0
    1.9418    2.5071   -0.1127 C   0  0  0  0  0  4           0  0  0
    0.0000    0.0000    0.0000 C   0  0  0  0  0  4           0  0  0
    1.7418   -2.5304    0.1007 C   0  0  0  0  0  4           0  0  0
    2.4132   -3.4644   -0.9015 C   0  0  0  0  0  4           0  0  0
    1.9278   -4.9131   -0.8385 C   0  0  0  0  0  4           0  0  0
    2.6381   -5.7837   -1.8622 C   0  0  0  0  0  4           0  0  0
  1 10  1  0     0  0
  2 26  2  0     0  0
  3 26  1  0     0  0
  4  5  2  0     0  0
  4  6  1  0     0  0
  5  7  1  0     0  0
  6 11  1  0     0  0
  7 11  2  0     0  0
  8 12  1  0     0  0
  8 13  1  0     0  0
  8 27  1  0     0  0
  9 10  1  0     0  0
  9 12  2  0     0  0
 10 13  2  0     0  0
 11 14  1  0     0  0
 12 28  1  0     0  0
 13 26  1  0     0  0
 14 15  1  0     0  0
 14 18  2  0     0  0
 15 16  1  0     0  0
 15 19  2  0     0  0
 16 20  2  0     0  0
 16 21  1  0     0  0
 17 22  2  0     0  0
 17 23  1  0     0  0
 17 27  1  0     0  0
 18 24  1  0     0  0
 19 25  1  0     0  0
 20 22  1  0     0  0
 21 23  2  0     0  0
 24 25  2  0     0  0
 28 29  1  0     0  0
 29 30  1  0     0  0
 30 31  1  0     0  0
M  END
> <standard_type>
pIC50

> <# Confs.>
25

> <canonical_smiles>
ClC(N=C1CCCC)=C(C(O)=O)N1CC2=CC=C(C3=CC=CC=C3C4=NN=NN4)C=C2

> <standard_relation>
=

> <Publication_ID>
Krovat_2003

> <predicted_activity_value>
8.130768280269024

> <actual_activity_value>
8.886056647693163

> <Compound>
1

> <standard_units>
nM

> hash
1800136262960392497

$$$$
1_
XXILIB    08252103503D 0   0.00000     0.00000

 31 34  0     1  0            999 V2000
    5.0450   -1.3797    0.3076 Cl  0  0  0  0  0  1           0  0  0
    1.3593   -3.1028   -0.7858 O   0  0  0  0  0  2           0  0  0
    2.3325   -3.1330    1.2591 O   0  0  0  0  0  2           0  0  0
    2.0003    1.5437    5.7018 N   0  0  0  0  0  3           0  0  0
    1.6974    2.4006    6.6676 N   0  0  0  0  0  3           0  0  0
    0.9002    0.7956    5.5434 N   0  0  0  0  0  3           0  0  0
    0.4141    2.2015    7.1220 N   0  0  0  0  0  3           0  0  0
    1.4535   -0.0000   -0.0000 N   0  0  0  0  0  3           0  0  0
    3.5186    0.8131    0.1075 N   0  0  0  0  0  3           0  0  0
    3.5558   -0.5529    0.1734 C   0  0  0  0  0  4           0  0  0
   -0.0741    1.2012    6.4150 C   0  0  0  0  0  4           0  0  0
    2.2476    1.1332    0.0000 C   0  0  0  0  0  4           0  0  0
    2.2852   -1.1083    0.0898 C   0  0  0  0  0  4           0  0  0
   -1.3835    0.6024    6.5038 C   0  0  0  0  0  4           0  0  0
   -2.0539    0.0012    5.4078 C   0  0  0  0  0  4           0  0  0
   -1.5361    0.0006    4.0448 C   0  0  0  0  0  4           0  0  0
   -0.5425    0.0000    1.3969 C   0  0  0  0  0  4           0  0  0
   -2.0089    0.6106    7.7673 C   0  0  0  0  0  4           0  0  0
   -3.3124   -0.5978    5.6388 C   0  0  0  0  0  4           0  0  0
   -1.2930    1.2055    3.3691 C   0  0  0  0  0  4           0  0  0
   -1.2692   -1.2048    3.3787 C   0  0  0  0  0  4           0  0  0
   -0.8005    1.2053    2.0611 C   0  0  0  0  0  4           0  0  0
   -0.7758   -1.2051    2.0708 C   0  0  0  0  0  4           0  0  0
   -3.2564    0.0194    7.9639 C   0  0  0  0  0  4           0  0  0
   -3.9060   -0.5908    6.9006 C   0  0  0  0  0  4           0  0  0
    1.9418   -2.5071    0.1127 C   0  0  0  0  0  4           0  0  0
    0.0000    0.0000    0.0000 C   0  0  0  0  0  4           0  0  0
    1.7418    2.5304   -0.1007 C   0  0  0  0  0  4           0  0  0
    2.5481    3.3698   -1.0870 C   0  0  0  0  0  4           0  0  0
    2.5468    2.8358   -2.5200 C   0  0  0  0  0  4           0  0  0
    3.3676    3.7198   -3.4448 C   0  0  0  0  0  4           0  0  0
  1 10  1  0     0  0
  2 26  2  0     0  0
  3 26  1  0     0  0
  4  5  2  0     0  0
  4  6  1  0     0  0
  5  7  1  0     0  0
  6 11  1  0     0  0
  7 11  2  0     0  0
  8 12  1  0     0  0
  8 13  1  0     0  0
  8 27  1  0     0  0
  9 10  1  0     0  0
  9 12  2  0     0  0
 10 13  2  0     0  0
 11 14  1  0     0  0
 12 28  1  0     0  0
 13 26  1  0     0  0
 14 15  1  0     0  0
 14 18  2  0     0  0
 15 16  1  0     0  0
 15 19  2  0     0  0
 16 20  2  0     0  0
 16 21  1  0     0  0
 17 22  2  0     0  0
 17 23  1  0     0  0
 17 27  1  0     0  0
 18 24  1  0     0  0
 19 25  1  0     0  0
 20 22  1  0     0  0
 21 23  2  0     0  0
 24 25  2  0     0  0
 28 29  1  0     0  0
 29 30  1  0     0  0
 30 31  1  0     0  0
M  END
> <standard_type>
pIC50

> <# Confs.>
25

> <canonical_smiles>
ClC(N=C1CCCC)=C(C(O)=O)N1CC2=CC=C(C3=CC=CC=C3C4=NN=NN4)C=C2

> <standard_relation>
=

> <Publication_ID>
Krovat_2003

> <predicted_activity_value>
8.130768280269024

> <actual_activity_value>
8.886056647693163

> <Compound>
1

> <standard_units>
nM

> hash
1800136262960392497

$$$$
1_
XXILIB    08252103503D 0   0.00000     0.00000

 31 34  0     1  0            999 V2000
    5.0450   -1.3797    0.3076 Cl  0  0  0  0  0  1           0  0  0
    1.3593   -3.1028   -0.7858 O   0  0  0  0  0  2           0  0  0
    2.3325   -3.1330    1.2591 O   0  0  0  0  0  2           0  0  0
    2.0003    1.5437    5.7018 N   0  0  0  0  0  3           0  0  0
    1.6974    2.4006    6.6676 N   0  0  0  0  0  3           0  0  0
    0.9002    0.7956    5.5434 N   0  0  0  0  0  3           0  0  0
    0.4141    2.2015    7.1220 N   0  0  0  0  0  3           0  0  0
    1.4535   -0.0000   -0.0000 N   0  0  0  0  0  3           0  0  0
    3.5186    0.8131    0.1075 N   0  0  0  0  0  3           0  0  0
    3.5558   -0.5529    0.1734 C   0  0  0  0  0  4           0  0  0
   -0.0741    1.2012    6.4150 C   0  0  0  0  0  4           0  0  0
    2.2476    1.1332    0.0000 C   0  0  0  0  0  4           0  0  0
    2.2852   -1.1083    0.0898 C   0  0  0  0  0  4           0  0  0
   -1.3835    0.6024    6.5038 C   0  0  0  0  0  4           0  0  0
   -2.0539    0.0012    5.4078 C   0  0  0  0  0  4           0  0  0
   -1.5361    0.0006    4.0448 C   0  0  0  0  0  4           0  0  0
   -0.5425    0.0000    1.3969 C   0  0  0  0  0  4           0  0  0
   -2.0089    0.6106    7.7673 C   0  0  0  0  0  4           0  0  0
   -3.3124   -0.5978    5.6388 C   0  0  0  0  0  4           0  0  0
   -1.2930    1.2055    3.3691 C   0  0  0  0  0  4           0  0  0
   -1.2692   -1.2048    3.3787 C   0  0  0  0  0  4           0  0  0
   -0.8005    1.2053    2.0611 C   0  0  0  0  0  4           0  0  0
   -0.7758   -1.2051    2.0708 C   0  0  0  0  0  4           0  0  0
   -3.2564    0.0194    7.9639 C   0  0  0  0  0  4           0  0  0
   -3.9060   -0.5908    6.9006 C   0  0  0  0  0  4           0  0  0
    1.9418   -2.5071    0.1127 C   0  0  0  0  0  4           0  0  0
    0.0000    0.0000    0.0000 C   0  0  0  0  0  4           0  0  0
    1.7418    2.5304   -0.1007 C   0  0  0  0  0  4           0  0  0
    2.5481    3.3698   -1.0870 C   0  0  0  0  0  4           0  0  0
    2.0680    4.8149   -1.2271 C   0  0  0  0  0  4           0  0  0
    2.9152    5.5895   -2.2233 C   0  0  0  0  0  4           0  0  0
  1 10  1  0     0  0
  2 26  2  0     0  0
  3 26  1  0     0  0
  4  5  2  0     0  0
  4  6  1  0     0  0
  5  7  1  0     0  0
  6 11  1  0     0  0
  7 11  2  0     0  0
  8 12  1  0     0  0
  8 13  1  0     0  0
  8 27  1  0     0  0
  9 10  1  0     0  0
  9 12  2  0     0  0
 10 13  2  0     0  0
 11 14  1  0     0  0
 12 28  1  0     0  0
 13 26  1  0     0  0
 14 15  1  0     0  0
 14 18  2  0     0  0
 15 16  1  0     0  0
 15 19  2  0     0  0
 16 20  2  0     0  0
 16 21  1  0     0  0
 17 22  2  0     0  0
 17 23  1  0     0  0
 17 27  1  0     0  0
 18 24  1  0     0  0
 19 25  1  0     0  0
 20 22  1  0     0  0
 21 23  2  0     0  0
 24 25  2  0     0  0
 28 29  1  0     0  0
 29 30  1  0     0  0
 30 31  1  0     0  0
M  END
> <standard_type>
pIC50

> <# Confs.>
25

> <canonical_smiles>
ClC(N=C1CCCC)=C(C(O)=O)N1CC2=CC=C(C3=CC=CC=C3C4=NN=NN4)C=C2

> <standard_relation>
=

> <Publication_ID>
Krovat_2003

> <predicted_activity_value>
8.130768280269024

> <actual_activity_value>
8.886056647693163

> <Compound>
1

> <standard_units>
nM

> hash
1800136262960392497

$$$$
1_
XXILIB    08252103503D 0   0.00000     0.00000

 31 34  0     1  0            999 V2000
    5.0450    1.1931    0.7581 Cl  0  0  0  0  0  1           0  0  0
    1.2178    2.8181    1.4807 O   0  0  0  0  0  2           0  0  0
    2.5112    1.6312    2.9118 O   0  0  0  0  0  2           0  0  0
    1.9642    1.5678    5.9658 N   0  0  0  0  0  3           0  0  0
    2.1994    0.5462    6.7781 N   0  0  0  0  0  3           0  0  0
    0.6358    1.5747    5.7919 N   0  0  0  0  0  3           0  0  0
    1.0307   -0.0938    7.1205 N   0  0  0  0  0  3           0  0  0
    1.4535    0.0000   -0.0000 N   0  0  0  0  0  3           0  0  0
    3.5186   -0.4990   -0.6510 N   0  0  0  0  0  3           0  0  0
    3.5558    0.5136    0.2684 C   0  0  0  0  0  4           0  0  0
    0.0630    0.5547    6.5027 C   0  0  0  0  0  4           0  0  0
    2.2476   -0.8013   -0.8013 C   0  0  0  0  0  4           0  0  0
    2.2852    0.8472    0.7202 C   0  0  0  0  0  4           0  0  0
   -1.3532    0.2817    6.5318 C   0  0  0  0  0  4           0  0  0
   -2.1218   -0.0314    5.3814 C   0  0  0  0  0  4           0  0  0
   -1.5873   -0.0234    4.0250 C   0  0  0  0  0  4           0  0  0
   -0.5425    0.0000    1.3969 C   0  0  0  0  0  4           0  0  0
   -1.9880    0.3165    7.7901 C   0  0  0  0  0  4           0  0  0
   -3.4920   -0.3306    5.5519 C   0  0  0  0  0  4           0  0  0
   -0.5214   -0.8627    3.6687 C   0  0  0  0  0  4           0  0  0
   -2.1271    0.8236    3.0455 C   0  0  0  0  0  4           0  0  0
   -0.0060   -0.8523    2.3697 C   0  0  0  0  0  4           0  0  0
   -1.6124    0.8333    1.7459 C   0  0  0  0  0  4           0  0  0
   -3.3449    0.0256    7.9271 C   0  0  0  0  0  4           0  0  0
   -4.0963   -0.3044    6.8084 C   0  0  0  0  0  4           0  0  0
    1.9418    1.8525    1.6930 C   0  0  0  0  0  4           0  0  0
    0.0000    0.0000    0.0000 C   0  0  0  0  0  4           0  0  0
    1.7418   -1.8605   -1.7180 C   0  0  0  0  0  4           0  0  0
    1.6401   -3.2203   -1.0337 C   0  0  0  0  0  4           0  0  0
    2.9659   -3.7554   -0.4913 C   0  0  0  0  0  4           0  0  0
    3.9930   -3.9255   -1.5987 C   0  0  0  0  0  4           0  0  0
  1 10  1  0     0  0
  2 26  2  0     0  0
  3 26  1  0     0  0
  4  5  2  0     0  0
  4  6  1  0     0  0
  5  7  1  0     0  0
  6 11  1  0     0  0
  7 11  2  0     0  0
  8 12  1  0     0  0
  8 13  1  0     0  0
  8 27  1  0     0  0
  9 10  1  0     0  0
  9 12  2  0     0  0
 10 13  2  0     0  0
 11 14  1  0     0  0
 12 28  1  0     0  0
 13 26  1  0     0  0
 14 15  1  0     0  0
 14 18  2  0     0  0
 15 16  1  0     0  0
 15 19  2  0     0  0
 16 20  2  0     0  0
 16 21  1  0     0  0
 17 22  2  0     0  0
 17 23  1  0     0  0
 17 27  1  0     0  0
 18 24  1  0     0  0
 19 25  1  0     0  0
 20 22  1  0     0  0
 21 23  2  0     0  0
 24 25  2  0     0  0
 28 29  1  0     0  0
 29 30  1  0     0  0
 30 31  1  0     0  0
M  END
> <standard_type>
pIC50

> <# Confs.>
25

> <canonical_smiles>
ClC(N=C1CCCC)=C(C(O)=O)N1CC2=CC=C(C3=CC=CC=C3C4=NN=NN4)C=C2

> <standard_relation>
=

> <Publication_ID>
Krovat_2003

> <predicted_activity_value>
8.130768280269024

> <actual_activity_value>
8.886056647693163

> <Compound>
1

> <standard_units>
nM

> hash
1800136262960392497

$$$$
1_
XXILIB    08252103503D 0   0.00000     0.00000

 31 34  0     1  0            999 V2000
    5.0450    1.1931    0.7581 Cl  0  0  0  0  0  1           0  0  0
    1.2178    2.8181    1.4807 O   0  0  0  0  0  2           0  0  0
    2.5112    1.6312    2.9118 O   0  0  0  0  0  2           0  0  0
   -3.2342   -3.8697    3.6689 N   0  0  0  0  0  3           0  0  0
   -3.0793   -4.5232    4.8125 N   0  0  0  0  0  3           0  0  0
   -3.1043   -2.5750    3.9882 N   0  0  0  0  0  3           0  0  0
   -2.8521   -3.6528    5.8535 N   0  0  0  0  0  3           0  0  0
    1.4535    0.0000   -0.0000 N   0  0  0  0  0  3           0  0  0
    3.5186   -0.4990   -0.6510 N   0  0  0  0  0  3           0  0  0
    3.5558    0.5136    0.2684 C   0  0  0  0  0  4           0  0  0
   -2.8681   -2.4428    5.3299 C   0  0  0  0  0  4           0  0  0
    2.2476   -0.8013   -0.8013 C   0  0  0  0  0  4           0  0  0
    2.2852    0.8472    0.7202 C   0  0  0  0  0  4           0  0  0
   -2.6811   -1.1789    5.9999 C   0  0  0  0  0  4           0  0  0
   -2.1218   -0.0314    5.3814 C   0  0  0  0  0  4           0  0  0
   -1.5873   -0.0234    4.0250 C   0  0  0  0  0  4           0  0  0
   -0.5425    0.0000    1.3969 C   0  0  0  0  0  4           0  0  0
   -3.1013   -1.0960    7.3430 C   0  0  0  0  0  4           0  0  0
   -2.0414    1.1626    6.1324 C   0  0  0  0  0  4           0  0  0
   -0.5214   -0.8627    3.6687 C   0  0  0  0  0  4           0  0  0
   -2.1271    0.8236    3.0455 C   0  0  0  0  0  4           0  0  0
   -0.0060   -0.8523    2.3697 C   0  0  0  0  0  4           0  0  0
   -1.6124    0.8333    1.7459 C   0  0  0  0  0  4           0  0  0
   -3.0012    0.0940    8.0630 C   0  0  0  0  0  4           0  0  0
   -2.4768    1.2259    7.4557 C   0  0  0  0  0  4           0  0  0
    1.9418    1.8525    1.6930 C   0  0  0  0  0  4           0  0  0
    0.0000    0.0000    0.0000 C   0  0  0  0  0  4           0  0  0
    1.7418   -1.8605   -1.7180 C   0  0  0  0  0  4           0  0  0
    1.6401   -3.2203   -1.0337 C   0  0  0  0  0  4           0  0  0
    1.1248   -4.3438   -1.9340 C   0  0  0  0  0  4           0  0  0
    1.0497   -5.6658   -1.1877 C   0  0  0  0  0  4           0  0  0
  1 10  1  0     0  0
  2 26  2  0     0  0
  3 26  1  0     0  0
  4  5  2  0     0  0
  4  6  1  0     0  0
  5  7  1  0     0  0
  6 11  1  0     0  0
  7 11  2  0     0  0
  8 12  1  0     0  0
  8 13  1  0     0  0
  8 27  1  0     0  0
  9 10  1  0     0  0
  9 12  2  0     0  0
 10 13  2  0     0  0
 11 14  1  0     0  0
 12 28  1  0     0  0
 13 26  1  0     0  0
 14 15  1  0     0  0
 14 18  2  0     0  0
 15 16  1  0     0  0
 15 19  2  0     0  0
 16 20  2  0     0  0
 16 21  1  0     0  0
 17 22  2  0     0  0
 17 23  1  0     0  0
 17 27  1  0     0  0
 18 24  1  0     0  0
 19 25  1  0     0  0
 20 22  1  0     0  0
 21 23  2  0     0  0
 24 25  2  0     0  0
 28 29  1  0     0  0
 29 30  1  0     0  0
 30 31  1  0     0  0
M  END
> <standard_type>
pIC50

> <# Confs.>
25

> <canonical_smiles>
ClC(N=C1CCCC)=C(C(O)=O)N1CC2=CC=C(C3=CC=CC=C3C4=NN=NN4)C=C2

> <standard_relation>
=

> <Publication_ID>
Krovat_2003

> <predicted_activity_value>
8.130768280269024

> <actual_activity_value>
8.886056647693163

> <Compound>
1

> <standard_units>
nM

> hash
1800136262960392497

$$$$
1_
XXILIB    08252103503D 0   0.00000     0.00000

 31 34  0     1  0            999 V2000
    5.0450    1.3797   -0.3076 Cl  0  0  0  0  0  1           0  0  0
    1.2178    3.0397   -0.9457 O   0  0  0  0  0  2           0  0  0
    2.5112    3.2124    0.9055 O   0  0  0  0  0  2           0  0  0
   -5.2692    1.6865    2.8785 N   0  0  0  0  0  3           0  0  0
   -6.2440    1.1282    3.5834 N   0  0  0  0  0  3           0  0  0
   -4.1531    1.4499    3.5808 N   0  0  0  0  0  3           0  0  0
   -5.7542    0.5395    4.7263 N   0  0  0  0  0  3           0  0  0
    1.4535   -0.0000   -0.0000 N   0  0  0  0  0  3           0  0  0
    3.5186   -0.8131   -0.1075 N   0  0  0  0  0  3           0  0  0
    3.5558    0.5529   -0.1734 C   0  0  0  0  0  4           0  0  0
   -4.4517    0.7440    4.7149 C   0  0  0  0  0  4           0  0  0
    2.2476   -1.1332    0.0000 C   0  0  0  0  0  4           0  0  0
    2.2852    1.1083   -0.0898 C   0  0  0  0  0  4           0  0  0
   -3.4752    0.3270    5.6915 C   0  0  0  0  0  4           0  0  0
   -2.1234    0.0297    5.3808 C   0  0  0  0  0  4           0  0  0
   -1.5881    0.0225    4.0246 C   0  0  0  0  0  4           0  0  0
   -0.5425    0.0000    1.3969 C   0  0  0  0  0  4           0  0  0
   -3.9062    0.2325    7.0304 C   0  0  0  0  0  4           0  0  0
   -1.2534   -0.3172    6.4384 C   0  0  0  0  0  4           0  0  0
   -2.1106   -0.8422    3.0515 C   0  0  0  0  0  4           0  0  0
   -0.5389    0.8802    3.6623 C   0  0  0  0  0  4           0  0  0
   -1.5950   -0.8523    1.7526 C   0  0  0  0  0  4           0  0  0
   -0.0237    0.8709    2.3629 C   0  0  0  0  0  4           0  0  0
   -3.0268   -0.1214    8.0530 C   0  0  0  0  0  4           0  0  0
   -1.6980   -0.3904    7.7581 C   0  0  0  0  0  4           0  0  0
    1.9418    2.5071   -0.1127 C   0  0  0  0  0  4           0  0  0
    0.0000    0.0000   -0.0000 C   0  0  0  0  0  4           0  0  0
    1.7418   -2.5304    0.1007 C   0  0  0  0  0  4           0  0  0
    1.4493   -3.1417   -1.2662 C   0  0  0  0  0  4           0  0  0
    0.9266   -4.5780   -1.2173 C   0  0  0  0  0  4           0  0  0
    0.6577   -5.1209   -2.6113 C   0  0  0  0  0  4           0  0  0
  1 10  1  0     0  0
  2 26  2  0     0  0
  3 26  1  0     0  0
  4  5  2  0     0  0
  4  6  1  0     0  0
  5  7  1  0     0  0
  6 11  1  0     0  0
  7 11  2  0     0  0
  8 12  1  0     0  0
  8 13  1  0     0  0
  8 27  1  0     0  0
  9 10  1  0     0  0
  9 12  2  0     0  0
 10 13  2  0     0  0
 11 14  1  0     0  0
 12 28  1  0     0  0
 13 26  1  0     0  0
 14 15  1  0     0  0
 14 18  2  0     0  0
 15 16  1  0     0  0
 15 19  2  0     0  0
 16 20  2  0     0  0
 16 21  1  0     0  0
 17 22  2  0     0  0
 17 23  1  0     0  0
 17 27  1  0     0  0
 18 24  1  0     0  0
 19 25  1  0     0  0
 20 22  1  0     0  0
 21 23  2  0     0  0
 24 25  2  0     0  0
 28 29  1  0     0  0
 29 30  1  0     0  0
 30 31  1  0     0  0
M  END
> <standard_type>
pIC50

> <# Confs.>
25

> <canonical_smiles>
ClC(N=C1CCCC)=C(C(O)=O)N1CC2=CC=C(C3=CC=CC=C3C4=NN=NN4)C=C2

> <standard_relation>
=

> <Publication_ID>
Krovat_2003

> <predicted_activity_value>
8.130768280269024

> <actual_activity_value>
8.886056647693163

> <Compound>
1

> <standard_units>
nM

> hash
1800136262960392497

$$$$
1_
XXILIB    08252103503D 0   0.00000     0.00000

 31 34  0     1  0            999 V2000
    5.0450   -1.3797    0.3076 Cl  0  0  0  0  0  1           0  0  0
    1.3593   -3.1028   -0.7858 O   0  0  0  0  0  2           0  0  0
    2.3325   -3.1330    1.2591 O   0  0  0  0  0  2           0  0  0
   -5.4197    1.7133    3.0981 N   0  0  0  0  0  3           0  0  0
   -5.3281    2.7987    3.8546 N   0  0  0  0  0  3           0  0  0
   -4.6820    0.7883    3.7267 N   0  0  0  0  0  3           0  0  0
   -4.5385    2.5685    4.9575 N   0  0  0  0  0  3           0  0  0
    1.4535   -0.0000   -0.0000 N   0  0  0  0  0  3           0  0  0
    3.5186    0.8131    0.1075 N   0  0  0  0  0  3           0  0  0
    3.5558   -0.5529    0.1734 C   0  0  0  0  0  4           0  0  0
   -4.1423    1.3140    4.8695 C   0  0  0  0  0  4           0  0  0
    2.2476    1.1332    0.0000 C   0  0  0  0  0  4           0  0  0
    2.2852   -1.1083    0.0898 C   0  0  0  0  0  4           0  0  0
   -3.2945    0.5809    5.7778 C   0  0  0  0  0  4           0  0  0
   -2.0539    0.0012    5.4078 C   0  0  0  0  0  4           0  0  0
   -1.5361    0.0006    4.0448 C   0  0  0  0  0  4           0  0  0
   -0.5425    0.0000    1.3969 C   0  0  0  0  0  4           0  0  0
   -3.7356    0.4600    7.1114 C   0  0  0  0  0  4           0  0  0
   -1.2927   -0.6467    6.4061 C   0  0  0  0  0  4           0  0  0
   -1.2930    1.2055    3.3691 C   0  0  0  0  0  4           0  0  0
   -1.2692   -1.2048    3.3787 C   0  0  0  0  0  4           0  0  0
   -0.8005    1.2053    2.0611 C   0  0  0  0  0  4           0  0  0
   -0.7758   -1.2051    2.0708 C   0  0  0  0  0  4           0  0  0
   -2.9669   -0.1936    8.0739 C   0  0  0  0  0  4           0  0  0
   -1.7418   -0.7419    7.7229 C   0  0  0  0  0  4           0  0  0
    1.9418   -2.5071    0.1127 C   0  0  0  0  0  4           0  0  0
    0.0000    0.0000   -0.0000 C   0  0  0  0  0  4           0  0  0
    1.7418    2.5304   -0.1007 C   0  0  0  0  0  4           0  0  0
    2.5481    3.3698   -1.0870 C   0  0  0  0  0  4           0  0  0
    2.5468    2.8358   -2.5200 C   0  0  0  0  0  4           0  0  0
    3.3676    3.7198   -3.4448 C   0  0  0  0  0  4           0  0  0
  1 10  1  0     0  0
  2 26  2  0     0  0
  3 26  1  0     0  0
  4  5  2  0     0  0
  4  6  1  0     0  0
  5  7  1  0     0  0
  6 11  1  0     0  0
  7 11  2  0     0  0
  8 12  1  0     0  0
  8 13  1  0     0  0
  8 27  1  0     0  0
  9 10  1  0     0  0
  9 12  2  0     0  0
 10 13  2  0     0  0
 11 14  1  0     0  0
 12 28  1  0     0  0
 13 26  1  0     0  0
 14 15  1  0     0  0
 14 18  2  0     0  0
 15 16  1  0     0  0
 15 19  2  0     0  0
 16 20  2  0     0  0
 16 21  1  0     0  0
 17 22  2  0     0  0
 17 23  1  0     0  0
 17 27  1  0     0  0
 18 24  1  0     0  0
 19 25  1  0     0  0
 20 22  1  0     0  0
 21 23  2  0     0  0
 24 25  2  0     0  0
 28 29  1  0     0  0
 29 30  1  0     0  0
 30 31  1  0     0  0
M  END
> <standard_type>
pIC50

> <# Confs.>
25

> <canonical_smiles>
ClC(N=C1CCCC)=C(C(O)=O)N1CC2=CC=C(C3=CC=CC=C3C4=NN=NN4)C=C2

> <standard_relation>
=

> <Publication_ID>
Krovat_2003

> <predicted_activity_value>
8.130768280269024

> <actual_activity_value>
8.886056647693163

> <Compound>
1

> <standard_units>
nM

> hash
1800136262960392497

$$$$
1_
XXILIB    08252103503D 0   0.00000     0.00000

 31 34  0     1  0            999 V2000
    5.0450    1.3797   -0.3076 Cl  0  0  0  0  0  1           0  0  0
    1.2178    3.0397   -0.9457 O   0  0  0  0  0  2           0  0  0
    2.5112    3.2124    0.9055 O   0  0  0  0  0  2           0  0  0
   -5.2692    1.6865    2.8785 N   0  0  0  0  0  3           0  0  0
   -6.2440    1.1282    3.5834 N   0  0  0  0  0  3           0  0  0
   -4.1531    1.4499    3.5808 N   0  0  0  0  0  3           0  0  0
   -5.7542    0.5395    4.7263 N   0  0  0  0  0  3           0  0  0
    1.4535   -0.0000   -0.0000 N   0  0  0  0  0  3           0  0  0
    3.5186   -0.8131   -0.1075 N   0  0  0  0  0  3           0  0  0
    3.5558    0.5529   -0.1734 C   0  0  0  0  0  4           0  0  0
   -4.4517    0.7440    4.7149 C   0  0  0  0  0  4           0  0  0
    2.2476   -1.1332    0.0000 C   0  0  0  0  0  4           0  0  0
    2.2852    1.1083   -0.0898 C   0  0  0  0  0  4           0  0  0
   -3.4752    0.3270    5.6915 C   0  0  0  0  0  4           0  0  0
   -2.1234    0.0297    5.3808 C   0  0  0  0  0  4           0  0  0
   -1.5881    0.0225    4.0246 C   0  0  0  0  0  4           0  0  0
   -0.5425    0.0000    1.3969 C   0  0  0  0  0  4           0  0  0
   -3.9062    0.2325    7.0304 C   0  0  0  0  0  4           0  0  0
   -1.2534   -0.3172    6.4384 C   0  0  0  0  0  4           0  0  0
   -2.1106   -0.8422    3.0515 C   0  0  0  0  0  4           0  0  0
   -0.5389    0.8802    3.6623 C   0  0  0  0  0  4           0  0  0
   -1.5950   -0.8523    1.7526 C   0  0  0  0  0  4           0  0  0
   -0.0237    0.8709    2.3629 C   0  0  0  0  0  4           0  0  0
   -3.0268   -0.1214    8.0530 C   0  0  0  0  0  4           0  0  0
   -1.6980   -0.3904    7.7581 C   0  0  0  0  0  4           0  0  0
    1.9418    2.5071   -0.1127 C   0  0  0  0  0  4           0  0  0
    0.0000    0.0000   -0.0000 C   0  0  0  0  0  4           0  0  0
    1.7418   -2.5304    0.1007 C   0  0  0  0  0  4           0  0  0
    1.6401   -3.0080    1.5461 C   0  0  0  0  0  4           0  0  0
    1.1248   -4.4391    1.7040 C   0  0  0  0  0  4           0  0  0
    1.0497   -4.8462    3.1665 C   0  0  0  0  0  4           0  0  0
  1 10  1  0     0  0
  2 26  2  0     0  0
  3 26  1  0     0  0
  4  5  2  0     0  0
  4  6  1  0     0  0
  5  7  1  0     0  0
  6 11  1  0     0  0
  7 11  2  0     0  0
  8 12  1  0     0  0
  8 13  1  0     0  0
  8 27  1  0     0  0
  9 10  1  0     0  0
  9 12  2  0     0  0
 10 13  2  0     0  0
 11 14  1  0     0  0
 12 28  1  0     0  0
 13 26  1  0     0  0
 14 15  1  0     0  0
 14 18  2  0     0  0
 15 16  1  0     0  0
 15 19  2  0     0  0
 16 20  2  0     0  0
 16 21  1  0     0  0
 17 22  2  0     0  0
 17 23  1  0     0  0
 17 27  1  0     0  0
 18 24  1  0     0  0
 19 25  1  0     0  0
 20 22  1  0     0  0
 21 23  2  0     0  0
 24 25  2  0     0  0
 28 29  1  0     0  0
 29 30  1  0     0  0
 30 31  1  0     0  0
M  END
> <standard_type>
pIC50

> <# Confs.>
25

> <canonical_smiles>
ClC(N=C1CCCC)=C(C(O)=O)N1CC2=CC=C(C3=CC=CC=C3C4=NN=NN4)C=C2

> <standard_relation>
=

> <Publication_ID>
Krovat_2003

> <predicted_activity_value>
8.130768280269024

> <actual_activity_value>
8.886056647693163

> <Compound>
1

> <standard_units>
nM

> hash
1800136262960392497

$$$$
1_
XXILIB    08252103503D 0   0.00000     0.00000

 31 34  0     1  0            999 V2000
    5.0450   -1.3797    0.3076 Cl  0  0  0  0  0  1           0  0  0
    1.3593   -3.1028   -0.7858 O   0  0  0  0  0  2           0  0  0
    2.3325   -3.1330    1.2591 O   0  0  0  0  0  2           0  0  0
   -5.4197    1.7133    3.0981 N   0  0  0  0  0  3           0  0  0
   -5.3281    2.7987    3.8546 N   0  0  0  0  0  3           0  0  0
   -4.6820    0.7883    3.7267 N   0  0  0  0  0  3           0  0  0
   -4.5385    2.5685    4.9575 N   0  0  0  0  0  3           0  0  0
    1.4535   -0.0000   -0.0000 N   0  0  0  0  0  3           0  0  0
    3.5186    0.8131    0.1075 N   0  0  0  0  0  3           0  0  0
    3.5558   -0.5529    0.1734 C   0  0  0  0  0  4           0  0  0
   -4.1423    1.3140    4.8695 C   0  0  0  0  0  4           0  0  0
    2.2476    1.1332    0.0000 C   0  0  0  0  0  4           0  0  0
    2.2852   -1.1083    0.0898 C   0  0  0  0  0  4           0  0  0
   -3.2945    0.5809    5.7778 C   0  0  0  0  0  4           0  0  0
   -2.0539    0.0012    5.4078 C   0  0  0  0  0  4           0  0  0
   -1.5361    0.0006    4.0448 C   0  0  0  0  0  4           0  0  0
   -0.5425    0.0000    1.3969 C   0  0  0  0  0  4           0  0  0
   -3.7356    0.4600    7.1114 C   0  0  0  0  0  4           0  0  0
   -1.2927   -0.6467    6.4061 C   0  0  0  0  0  4           0  0  0
   -1.2930    1.2055    3.3691 C   0  0  0  0  0  4           0  0  0
   -1.2692   -1.2048    3.3787 C   0  0  0  0  0  4           0  0  0
   -0.8005    1.2053    2.0611 C   0  0  0  0  0  4           0  0  0
   -0.7758   -1.2051    2.0708 C   0  0  0  0  0  4           0  0  0
   -2.9669   -0.1936    8.0739 C   0  0  0  0  0  4           0  0  0
   -1.7418   -0.7419    7.7229 C   0  0  0  0  0  4           0  0  0
    1.9418   -2.5071    0.1127 C   0  0  0  0  0  4           0  0  0
    0.0000    0.0000   -0.0000 C   0  0  0  0  0  4           0  0  0
    1.7418    2.5304   -0.1007 C   0  0  0  0  0  4           0  0  0
    2.5481    3.3698   -1.0870 C   0  0  0  0  0  4           0  0  0
    2.0680    4.8149   -1.2271 C   0  0  0  0  0  4           0  0  0
    2.9152    5.5895   -2.2233 C   0  0  0  0  0  4           0  0  0
  1 10  1  0     0  0
  2 26  2  0     0  0
  3 26  1  0     0  0
  4  5  2  0     0  0
  4  6  1  0     0  0
  5  7  1  0     0  0
  6 11  1  0     0  0
  7 11  2  0     0  0
  8 12  1  0     0  0
  8 13  1  0     0  0
  8 27  1  0     0  0
  9 10  1  0     0  0
  9 12  2  0     0  0
 10 13  2  0     0  0
 11 14  1  0     0  0
 12 28  1  0     0  0
 13 26  1  0     0  0
 14 15  1  0     0  0
 14 18  2  0     0  0
 15 16  1  0     0  0
 15 19  2  0     0  0
 16 20  2  0     0  0
 16 21  1  0     0  0
 17 22  2  0     0  0
 17 23  1  0     0  0
 17 27  1  0     0  0
 18 24  1  0     0  0
 19 25  1  0     0  0
 20 22  1  0     0  0
 21 23  2  0     0  0
 24 25  2  0     0  0
 28 29  1  0     0  0
 29 30  1  0     0  0
 30 31  1  0     0  0
M  END
> <standard_type>
pIC50

> <# Confs.>
25

> <canonical_smiles>
ClC(N=C1CCCC)=C(C(O)=O)N1CC2=CC=C(C3=CC=CC=C3C4=NN=NN4)C=C2

> <standard_relation>
=

> <Publication_ID>
Krovat_2003

> <predicted_activity_value>
8.130768280269024

> <actual_activity_value>
8.886056647693163

> <Compound>
1

> <standard_units>
nM

> hash
1800136262960392497

$$$$
1_
XXILIB    08252103503D 0   0.00000     0.00000

 31 34  0     1  0            999 V2000
    5.0450   -1.3797    0.3076 Cl  0  0  0  0  0  1           0  0  0
    1.3593   -3.1028   -0.7858 O   0  0  0  0  0  2           0  0  0
    2.3325   -3.1330    1.2591 O   0  0  0  0  0  2           0  0  0
    2.0003    1.5437    5.7018 N   0  0  0  0  0  3           0  0  0
    1.6974    2.4006    6.6676 N   0  0  0  0  0  3           0  0  0
    0.9002    0.7956    5.5434 N   0  0  0  0  0  3           0  0  0
    0.4141    2.2015    7.1220 N   0  0  0  0  0  3           0  0  0
    1.4535    0.0000    0.0000 N   0  0  0  0  0  3           0  0  0
    3.5186    0.8131    0.1075 N   0  0  0  0  0  3           0  0  0
    3.5558   -0.5529    0.1734 C   0  0  0  0  0  4           0  0  0
   -0.0741    1.2012    6.4150 C   0  0  0  0  0  4           0  0  0
    2.2476    1.1332    0.0000 C   0  0  0  0  0  4           0  0  0
    2.2852   -1.1083    0.0898 C   0  0  0  0  0  4           0  0  0
   -1.3835    0.6024    6.5038 C   0  0  0  0  0  4           0  0  0
   -2.0539    0.0012    5.4078 C   0  0  0  0  0  4           0  0  0
   -1.5361    0.0006    4.0448 C   0  0  0  0  0  4           0  0  0
   -0.5425    0.0000    1.3969 C   0  0  0  0  0  4           0  0  0
   -2.0089    0.6106    7.7673 C   0  0  0  0  0  4           0  0  0
   -3.3124   -0.5978    5.6388 C   0  0  0  0  0  4           0  0  0
   -1.2930    1.2055    3.3691 C   0  0  0  0  0  4           0  0  0
   -1.2692   -1.2048    3.3787 C   0  0  0  0  0  4           0  0  0
   -0.8005    1.2053    2.0611 C   0  0  0  0  0  4           0  0  0
   -0.7758   -1.2051    2.0708 C   0  0  0  0  0  4           0  0  0
   -3.2564    0.0194    7.9639 C   0  0  0  0  0  4           0  0  0
   -3.9060   -0.5908    6.9006 C   0  0  0  0  0  4           0  0  0
    1.9418   -2.5071    0.1127 C   0  0  0  0  0  4           0  0  0
    0.0000    0.0000    0.0000 C   0  0  0  0  0  4           0  0  0
    1.7418    2.5304   -0.1007 C   0  0  0  0  0  4           0  0  0
    2.4132    3.4644    0.9015 C   0  0  0  0  0  4           0  0  0
    1.9278    4.9131    0.8385 C   0  0  0  0  0  4           0  0  0
    2.6381    5.7837    1.8622 C   0  0  0  0  0  4           0  0  0
  1 10  1  0     0  0
  2 26  2  0     0  0
  3 26  1  0     0  0
  4  5  2  0     0  0
  4  6  1  0     0  0
  5  7  1  0     0  0
  6 11  1  0     0  0
  7 11  2  0     0  0
  8 12  1  0     0  0
  8 13  1  0     0  0
  8 27  1  0     0  0
  9 10  1  0     0  0
  9 12  2  0     0  0
 10 13  2  0     0  0
 11 14  1  0     0  0
 12 28  1  0     0  0
 13 26  1  0     0  0
 14 15  1  0     0  0
 14 18  2  0     0  0
 15 16  1  0     0  0
 15 19  2  0     0  0
 16 20  2  0     0  0
 16 21  1  0     0  0
 17 22  2  0     0  0
 17 23  1  0     0  0
 17 27  1  0     0  0
 18 24  1  0     0  0
 19 25  1  0     0  0
 20 22  1  0     0  0
 21 23  2  0     0  0
 24 25  2  0     0  0
 28 29  1  0     0  0
 29 30  1  0     0  0
 30 31  1  0     0  0
M  END
> <standard_type>
pIC50

> <# Confs.>
25

> <canonical_smiles>
ClC(N=C1CCCC)=C(C(O)=O)N1CC2=CC=C(C3=CC=CC=C3C4=NN=NN4)C=C2

> <standard_relation>
=

> <Publication_ID>
Krovat_2003

> <predicted_activity_value>
8.130768280269024

> <actual_activity_value>
8.886056647693163

> <Compound>
1

> <standard_units>
nM

> hash
1800136262960392497

$$$$
1_
XXILIB    08252103503D 0   0.00000     0.00000

 31 34  0     1  0            999 V2000
    5.0450    1.3797   -0.3076 Cl  0  0  0  0  0  1           0  0  0
    1.2178    3.0397   -0.9457 O   0  0  0  0  0  2           0  0  0
    2.5112    3.2124    0.9055 O   0  0  0  0  0  2           0  0  0
   -5.2692    1.6865    2.8785 N   0  0  0  0  0  3           0  0  0
   -6.2440    1.1282    3.5834 N   0  0  0  0  0  3           0  0  0
   -4.1531    1.4499    3.5808 N   0  0  0  0  0  3           0  0  0
   -5.7542    0.5395    4.7263 N   0  0  0  0  0  3           0  0  0
    1.4535    0.0000   -0.0000 N   0  0  0  0  0  3           0  0  0
    3.5186   -0.8131   -0.1075 N   0  0  0  0  0  3           0  0  0
    3.5558    0.5529   -0.1734 C   0  0  0  0  0  4           0  0  0
   -4.4517    0.7440    4.7149 C   0  0  0  0  0  4           0  0  0
    2.2476   -1.1332    0.0000 C   0  0  0  0  0  4           0  0  0
    2.2852    1.1083   -0.0898 C   0  0  0  0  0  4           0  0  0
   -3.4752    0.3270    5.6915 C   0  0  0  0  0  4           0  0  0
   -2.1234    0.0297    5.3808 C   0  0  0  0  0  4           0  0  0
   -1.5881    0.0225    4.0246 C   0  0  0  0  0  4           0  0  0
   -0.5425    0.0000    1.3969 C   0  0  0  0  0  4           0  0  0
   -3.9062    0.2325    7.0304 C   0  0  0  0  0  4           0  0  0
   -1.2534   -0.3172    6.4384 C   0  0  0  0  0  4           0  0  0
   -2.1106   -0.8422    3.0515 C   0  0  0  0  0  4           0  0  0
   -0.5389    0.8802    3.6623 C   0  0  0  0  0  4           0  0  0
   -1.5950   -0.8523    1.7526 C   0  0  0  0  0  4           0  0  0
   -0.0237    0.8709    2.3629 C   0  0  0  0  0  4           0  0  0
   -3.0268   -0.1214    8.0530 C   0  0  0  0  0  4           0  0  0
   -1.6980   -0.3904    7.7581 C   0  0  0  0  0  4           0  0  0
    1.9418    2.5071   -0.1127 C   0  0  0  0  0  4           0  0  0
    0.0000    0.0000   -0.0000 C   0  0  0  0  0  4           0  0  0
    1.7418   -2.5304    0.1007 C   0  0  0  0  0  4           0  0  0
    2.5481   -3.3698    1.0870 C   0  0  0  0  0  4           0  0  0
    2.5468   -2.8358    2.5200 C   0  0  0  0  0  4           0  0  0
    3.3676   -3.7198    3.4448 C   0  0  0  0  0  4           0  0  0
  1 10  1  0     0  0
  2 26  2  0     0  0
  3 26  1  0     0  0
  4  5  2  0     0  0
  4  6  1  0     0  0
  5  7  1  0     0  0
  6 11  1  0     0  0
  7 11  2  0     0  0
  8 12  1  0     0  0
  8 13  1  0     0  0
  8 27  1  0     0  0
  9 10  1  0     0  0
  9 12  2  0     0  0
 10 13  2  0     0  0
 11 14  1  0     0  0
 12 28  1  0     0  0
 13 26  1  0     0  0
 14 15  1  0     0  0
 14 18  2  0     0  0
 15 16  1  0     0  0
 15 19  2  0     0  0
 16 20  2  0     0  0
 16 21  1  0     0  0
 17 22  2  0     0  0
 17 23  1  0     0  0
 17 27  1  0     0  0
 18 24  1  0     0  0
 19 25  1  0     0  0
 20 22  1  0     0  0
 21 23  2  0     0  0
 24 25  2  0     0  0
 28 29  1  0     0  0
 29 30  1  0     0  0
 30 31  1  0     0  0
M  END
> <standard_type>
pIC50

> <# Confs.>
25

> <canonical_smiles>
ClC(N=C1CCCC)=C(C(O)=O)N1CC2=CC=C(C3=CC=CC=C3C4=NN=NN4)C=C2

> <standard_relation>
=

> <Publication_ID>
Krovat_2003

> <predicted_activity_value>
8.130768280269024

> <actual_activity_value>
8.886056647693163

> <Compound>
1

> <standard_units>
nM

> hash
1800136262960392497

$$$$
1_
XXILIB    08252103503D 0   0.00000     0.00000

 31 34  0     1  0            999 V2000
    5.0450    1.1931    0.7581 Cl  0  0  0  0  0  1           0  0  0
    1.2178    2.8181    1.4807 O   0  0  0  0  0  2           0  0  0
    2.5112    1.6312    2.9118 O   0  0  0  0  0  2           0  0  0
   -3.2342   -3.8697    3.6689 N   0  0  0  0  0  3           0  0  0
   -3.0793   -4.5232    4.8125 N   0  0  0  0  0  3           0  0  0
   -3.1043   -2.5750    3.9882 N   0  0  0  0  0  3           0  0  0
   -2.8521   -3.6528    5.8535 N   0  0  0  0  0  3           0  0  0
    1.4535    0.0000   -0.0000 N   0  0  0  0  0  3           0  0  0
    3.5186   -0.4990   -0.6510 N   0  0  0  0  0  3           0  0  0
    3.5558    0.5136    0.2684 C   0  0  0  0  0  4           0  0  0
   -2.8681   -2.4428    5.3299 C   0  0  0  0  0  4           0  0  0
    2.2476   -0.8013   -0.8013 C   0  0  0  0  0  4           0  0  0
    2.2852    0.8472    0.7202 C   0  0  0  0  0  4           0  0  0
   -2.6811   -1.1789    5.9999 C   0  0  0  0  0  4           0  0  0
   -2.1218   -0.0314    5.3814 C   0  0  0  0  0  4           0  0  0
   -1.5873   -0.0234    4.0250 C   0  0  0  0  0  4           0  0  0
   -0.5425    0.0000    1.3969 C   0  0  0  0  0  4           0  0  0
   -3.1013   -1.0960    7.3430 C   0  0  0  0  0  4           0  0  0
   -2.0414    1.1626    6.1324 C   0  0  0  0  0  4           0  0  0
   -0.5214   -0.8627    3.6687 C   0  0  0  0  0  4           0  0  0
   -2.1271    0.8236    3.0455 C   0  0  0  0  0  4           0  0  0
   -0.0060   -0.8523    2.3697 C   0  0  0  0  0  4           0  0  0
   -1.6124    0.8333    1.7459 C   0  0  0  0  0  4           0  0  0
   -3.0012    0.0940    8.0630 C   0  0  0  0  0  4           0  0  0
   -2.4768    1.2259    7.4557 C   0  0  0  0  0  4           0  0  0
    1.9418    1.8525    1.6930 C   0  0  0  0  0  4           0  0  0
    0.0000    0.0000    0.0000 C   0  0  0  0  0  4           0  0  0
    1.7418   -1.8605   -1.7180 C   0  0  0  0  0  4           0  0  0
    1.4493   -1.3262   -3.1168 C   0  0  0  0  0  4           0  0  0
    0.9266   -2.3764   -4.0979 C   0  0  0  0  0  4           0  0  0
    0.6577   -1.7745   -5.4674 C   0  0  0  0  0  4           0  0  0
  1 10  1  0     0  0
  2 26  2  0     0  0
  3 26  1  0     0  0
  4  5  2  0     0  0
  4  6  1  0     0  0
  5  7  1  0     0  0
  6 11  1  0     0  0
  7 11  2  0     0  0
  8 12  1  0     0  0
  8 13  1  0     0  0
  8 27  1  0     0  0
  9 10  1  0     0  0
  9 12  2  0     0  0
 10 13  2  0     0  0
 11 14  1  0     0  0
 12 28  1  0     0  0
 13 26  1  0     0  0
 14 15  1  0     0  0
 14 18  2  0     0  0
 15 16  1  0     0  0
 15 19  2  0     0  0
 16 20  2  0     0  0
 16 21  1  0     0  0
 17 22  2  0     0  0
 17 23  1  0     0  0
 17 27  1  0     0  0
 18 24  1  0     0  0
 19 25  1  0     0  0
 20 22  1  0     0  0
 21 23  2  0     0  0
 24 25  2  0     0  0
 28 29  1  0     0  0
 29 30  1  0     0  0
 30 31  1  0     0  0
M  END
> <standard_type>
pIC50

> <# Confs.>
25

> <canonical_smiles>
ClC(N=C1CCCC)=C(C(O)=O)N1CC2=CC=C(C3=CC=CC=C3C4=NN=NN4)C=C2

> <standard_relation>
=

> <Publication_ID>
Krovat_2003

> <predicted_activity_value>
8.130768280269024

> <actual_activity_value>
8.886056647693163

> <Compound>
1

> <standard_units>
nM

> hash
1800136262960392497

$$$$
1_
XXILIB    08252103503D 0   0.00000     0.00000

 31 34  0     1  0            999 V2000
    5.0450    1.3797   -0.3076 Cl  0  0  0  0  0  1           0  0  0
    1.2178    3.0397   -0.9457 O   0  0  0  0  0  2           0  0  0
    2.5112    3.2124    0.9055 O   0  0  0  0  0  2           0  0  0
   -5.2692    1.6865    2.8785 N   0  0  0  0  0  3           0  0  0
   -6.2440    1.1282    3.5834 N   0  0  0  0  0  3           0  0  0
   -4.1531    1.4499    3.5808 N   0  0  0  0  0  3           0  0  0
   -5.7542    0.5395    4.7263 N   0  0  0  0  0  3           0  0  0
    1.4535   -0.0000   -0.0000 N   0  0  0  0  0  3           0  0  0
    3.5186   -0.8131   -0.1075 N   0  0  0  0  0  3           0  0  0
    3.5558    0.5529   -0.1734 C   0  0  0  0  0  4           0  0  0
   -4.4517    0.7440    4.7149 C   0  0  0  0  0  4           0  0  0
    2.2476   -1.1332    0.0000 C   0  0  0  0  0  4           0  0  0
    2.2852    1.1083   -0.0898 C   0  0  0  0  0  4           0  0  0
   -3.4752    0.3270    5.6915 C   0  0  0  0  0  4           0  0  0
   -2.1234    0.0297    5.3808 C   0  0  0  0  0  4           0  0  0
   -1.5881    0.0225    4.0246 C   0  0  0  0  0  4           0  0  0
   -0.5425    0.0000    1.3969 C   0  0  0  0  0  4           0  0  0
   -3.9062    0.2325    7.0304 C   0  0  0  0  0  4           0  0  0
   -1.2534   -0.3172    6.4384 C   0  0  0  0  0  4           0  0  0
   -2.1106   -0.8422    3.0515 C   0  0  0  0  0  4           0  0  0
   -0.5389    0.8802    3.6623 C   0  0  0  0  0  4           0  0  0
   -1.5950   -0.8523    1.7526 C   0  0  0  0  0  4           0  0  0
   -0.0237    0.8709    2.3629 C   0  0  0  0  0  4           0  0  0
   -3.0268   -0.1214    8.0530 C   0  0  0  0  0  4           0  0  0
   -1.6980   -0.3904    7.7581 C   0  0  0  0  0  4           0  0  0
    1.9418    2.5071   -0.1127 C   0  0  0  0  0  4           0  0  0
    0.0000    0.0000   -0.0000 C   0  0  0  0  0  4           0  0  0
    1.7418   -2.5304    0.1007 C   0  0  0  0  0  4           0  0  0
    1.4493   -3.1417   -1.2662 C   0  0  0  0  0  4           0  0  0
    2.6603   -3.2170   -2.1969 C   0  0  0  0  0  4           0  0  0
    2.2957   -3.8351   -3.5368 C   0  0  0  0  0  4           0  0  0
  1 10  1  0     0  0
  2 26  2  0     0  0
  3 26  1  0     0  0
  4  5  2  0     0  0
  4  6  1  0     0  0
  5  7  1  0     0  0
  6 11  1  0     0  0
  7 11  2  0     0  0
  8 12  1  0     0  0
  8 13  1  0     0  0
  8 27  1  0     0  0
  9 10  1  0     0  0
  9 12  2  0     0  0
 10 13  2  0     0  0
 11 14  1  0     0  0
 12 28  1  0     0  0
 13 26  1  0     0  0
 14 15  1  0     0  0
 14 18  2  0     0  0
 15 16  1  0     0  0
 15 19  2  0     0  0
 16 20  2  0     0  0
 16 21  1  0     0  0
 17 22  2  0     0  0
 17 23  1  0     0  0
 17 27  1  0     0  0
 18 24  1  0     0  0
 19 25  1  0     0  0
 20 22  1  0     0  0
 21 23  2  0     0  0
 24 25  2  0     0  0
 28 29  1  0     0  0
 29 30  1  0     0  0
 30 31  1  0     0  0
M  END
> <standard_type>
pIC50

> <# Confs.>
25

> <canonical_smiles>
ClC(N=C1CCCC)=C(C(O)=O)N1CC2=CC=C(C3=CC=CC=C3C4=NN=NN4)C=C2

> <standard_relation>
=

> <Publication_ID>
Krovat_2003

> <predicted_activity_value>
8.130768280269024

> <actual_activity_value>
8.886056647693163

> <Compound>
1

> <standard_units>
nM

> hash
1800136262960392497

$$$$
1_
XXILIB    08252103503D 0   0.00000     0.00000

 31 34  0     1  0            999 V2000
    5.0450    1.1931    0.7581 Cl  0  0  0  0  0  1           0  0  0
    1.2178    2.8181    1.4807 O   0  0  0  0  0  2           0  0  0
    2.5112    1.6312    2.9118 O   0  0  0  0  0  2           0  0  0
   -3.2342   -3.8697    3.6689 N   0  0  0  0  0  3           0  0  0
   -3.0793   -4.5232    4.8125 N   0  0  0  0  0  3           0  0  0
   -3.1043   -2.5750    3.9882 N   0  0  0  0  0  3           0  0  0
   -2.8521   -3.6528    5.8535 N   0  0  0  0  0  3           0  0  0
    1.4535    0.0000    0.0000 N   0  0  0  0  0  3           0  0  0
    3.5186   -0.4990   -0.6510 N   0  0  0  0  0  3           0  0  0
    3.5558    0.5136    0.2684 C   0  0  0  0  0  4           0  0  0
   -2.8681   -2.4428    5.3299 C   0  0  0  0  0  4           0  0  0
    2.2476   -0.8013   -0.8013 C   0  0  0  0  0  4           0  0  0
    2.2852    0.8472    0.7202 C   0  0  0  0  0  4           0  0  0
   -2.6811   -1.1789    5.9999 C   0  0  0  0  0  4           0  0  0
   -2.1218   -0.0314    5.3814 C   0  0  0  0  0  4           0  0  0
   -1.5873   -0.0234    4.0250 C   0  0  0  0  0  4           0  0  0
   -0.5425    0.0000    1.3969 C   0  0  0  0  0  4           0  0  0
   -3.1013   -1.0960    7.3430 C   0  0  0  0  0  4           0  0  0
   -2.0414    1.1626    6.1324 C   0  0  0  0  0  4           0  0  0
   -0.5214   -0.8627    3.6687 C   0  0  0  0  0  4           0  0  0
   -2.1271    0.8236    3.0455 C   0  0  0  0  0  4           0  0  0
   -0.0060   -0.8523    2.3697 C   0  0  0  0  0  4           0  0  0
   -1.6124    0.8333    1.7459 C   0  0  0  0  0  4           0  0  0
   -3.0012    0.0940    8.0630 C   0  0  0  0  0  4           0  0  0
   -2.4768    1.2259    7.4557 C   0  0  0  0  0  4           0  0  0
    1.9418    1.8525    1.6930 C   0  0  0  0  0  4           0  0  0
    0.0000    0.0000    0.0000 C   0  0  0  0  0  4           0  0  0
    1.7418   -1.8605   -1.7180 C   0  0  0  0  0  4           0  0  0
    2.8684   -2.5682   -2.4647 C   0  0  0  0  0  4           0  0  0
    2.4006   -3.6665   -3.4205 C   0  0  0  0  0  4           0  0  0
    3.5732   -4.3263   -4.1277 C   0  0  0  0  0  4           0  0  0
  1 10  1  0     0  0
  2 26  2  0     0  0
  3 26  1  0     0  0
  4  5  2  0     0  0
  4  6  1  0     0  0
  5  7  1  0     0  0
  6 11  1  0     0  0
  7 11  2  0     0  0
  8 12  1  0     0  0
  8 13  1  0     0  0
  8 27  1  0     0  0
  9 10  1  0     0  0
  9 12  2  0     0  0
 10 13  2  0     0  0
 11 14  1  0     0  0
 12 28  1  0     0  0
 13 26  1  0     0  0
 14 15  1  0     0  0
 14 18  2  0     0  0
 15 16  1  0     0  0
 15 19  2  0     0  0
 16 20  2  0     0  0
 16 21  1  0     0  0
 17 22  2  0     0  0
 17 23  1  0     0  0
 17 27  1  0     0  0
 18 24  1  0     0  0
 19 25  1  0     0  0
 20 22  1  0     0  0
 21 23  2  0     0  0
 24 25  2  0     0  0
 28 29  1  0     0  0
 29 30  1  0     0  0
 30 31  1  0     0  0
M  END
> <standard_type>
pIC50

> <# Confs.>
25

> <canonical_smiles>
ClC(N=C1CCCC)=C(C(O)=O)N1CC2=CC=C(C3=CC=CC=C3C4=NN=NN4)C=C2

> <standard_relation>
=

> <Publication_ID>
Krovat_2003

> <predicted_activity_value>
8.130768280269024

> <actual_activity_value>
8.886056647693163

> <Compound>
1

> <standard_units>
nM

> hash
1800136262960392497

$$$$
1_
XXILIB    08252103503D 0   0.00000     0.00000

 31 34  0     1  0            999 V2000
    5.0450    1.1931    0.7581 Cl  0  0  0  0  0  1           0  0  0
    1.2178    2.8181    1.4807 O   0  0  0  0  0  2           0  0  0
    2.5112    1.6312    2.9118 O   0  0  0  0  0  2           0  0  0
   -3.2342   -3.8697    3.6689 N   0  0  0  0  0  3           0  0  0
   -3.0793   -4.5232    4.8125 N   0  0  0  0  0  3           0  0  0
   -3.1043   -2.5750    3.9882 N   0  0  0  0  0  3           0  0  0
   -2.8521   -3.6528    5.8535 N   0  0  0  0  0  3           0  0  0
    1.4535    0.0000   -0.0000 N   0  0  0  0  0  3           0  0  0
    3.5186   -0.4990   -0.6510 N   0  0  0  0  0  3           0  0  0
    3.5558    0.5136    0.2684 C   0  0  0  0  0  4           0  0  0
   -2.8681   -2.4428    5.3299 C   0  0  0  0  0  4           0  0  0
    2.2476   -0.8013   -0.8013 C   0  0  0  0  0  4           0  0  0
    2.2852    0.8472    0.7202 C   0  0  0  0  0  4           0  0  0
   -2.6811   -1.1789    5.9999 C   0  0  0  0  0  4           0  0  0
   -2.1218   -0.0314    5.3814 C   0  0  0  0  0  4           0  0  0
   -1.5873   -0.0234    4.0250 C   0  0  0  0  0  4           0  0  0
   -0.5425    0.0000    1.3969 C   0  0  0  0  0  4           0  0  0
   -3.1013   -1.0960    7.3430 C   0  0  0  0  0  4           0  0  0
   -2.0414    1.1626    6.1324 C   0  0  0  0  0  4           0  0  0
   -0.5214   -0.8627    3.6687 C   0  0  0  0  0  4           0  0  0
   -2.1271    0.8236    3.0455 C   0  0  0  0  0  4           0  0  0
   -0.0060   -0.8523    2.3697 C   0  0  0  0  0  4           0  0  0
   -1.6124    0.8333    1.7459 C   0  0  0  0  0  4           0  0  0
   -3.0012    0.0940    8.0630 C   0  0  0  0  0  4           0  0  0
   -2.4768    1.2259    7.4557 C   0  0  0  0  0  4           0  0  0
    1.9418    1.8525    1.6930 C   0  0  0  0  0  4           0  0  0
    0.0000    0.0000    0.0000 C   0  0  0  0  0  4           0  0  0
    1.7418   -1.8605   -1.7180 C   0  0  0  0  0  4           0  0  0
    1.4493   -1.3262   -3.1168 C   0  0  0  0  0  4           0  0  0
    2.6603   -0.7213   -3.8282 C   0  0  0  0  0  4           0  0  0
    2.2957   -0.2109   -5.2127 C   0  0  0  0  0  4           0  0  0
  1 10  1  0     0  0
  2 26  2  0     0  0
  3 26  1  0     0  0
  4  5  2  0     0  0
  4  6  1  0     0  0
  5  7  1  0     0  0
  6 11  1  0     0  0
  7 11  2  0     0  0
  8 12  1  0     0  0
  8 13  1  0     0  0
  8 27  1  0     0  0
  9 10  1  0     0  0
  9 12  2  0     0  0
 10 13  2  0     0  0
 11 14  1  0     0  0
 12 28  1  0     0  0
 13 26  1  0     0  0
 14 15  1  0     0  0
 14 18  2  0     0  0
 15 16  1  0     0  0
 15 19  2  0     0  0
 16 20  2  0     0  0
 16 21  1  0     0  0
 17 22  2  0     0  0
 17 23  1  0     0  0
 17 27  1  0     0  0
 18 24  1  0     0  0
 19 25  1  0     0  0
 20 22  1  0     0  0
 21 23  2  0     0  0
 24 25  2  0     0  0
 28 29  1  0     0  0
 29 30  1  0     0  0
 30 31  1  0     0  0
M  END
> <standard_type>
pIC50

> <# Confs.>
25

> <canonical_smiles>
ClC(N=C1CCCC)=C(C(O)=O)N1CC2=CC=C(C3=CC=CC=C3C4=NN=NN4)C=C2

> <standard_relation>
=

> <Publication_ID>
Krovat_2003

> <predicted_activity_value>
8.130768280269024

> <actual_activity_value>
8.886056647693163

> <Compound>
1

> <standard_units>
nM

> hash
1800136262960392497

$$$$
1_
XXILIB    08252103503D 0   0.00000     0.00000

 31 34  0     1  0            999 V2000
    5.0450   -1.3797    0.3076 Cl  0  0  0  0  0  1           0  0  0
    1.3593   -3.1028   -0.7858 O   0  0  0  0  0  2           0  0  0
    2.3325   -3.1330    1.2591 O   0  0  0  0  0  2           0  0  0
    2.0003    1.5437    5.7018 N   0  0  0  0  0  3           0  0  0
    1.6974    2.4006    6.6676 N   0  0  0  0  0  3           0  0  0
    0.9002    0.7956    5.5434 N   0  0  0  0  0  3           0  0  0
    0.4141    2.2015    7.1220 N   0  0  0  0  0  3           0  0  0
    1.4535    0.0000    0.0000 N   0  0  0  0  0  3           0  0  0
    3.5186    0.8131    0.1075 N   0  0  0  0  0  3           0  0  0
    3.5558   -0.5529    0.1734 C   0  0  0  0  0  4           0  0  0
   -0.0741    1.2012    6.4150 C   0  0  0  0  0  4           0  0  0
    2.2476    1.1332    0.0000 C   0  0  0  0  0  4           0  0  0
    2.2852   -1.1083    0.0898 C   0  0  0  0  0  4           0  0  0
   -1.3835    0.6024    6.5038 C   0  0  0  0  0  4           0  0  0
   -2.0539    0.0012    5.4078 C   0  0  0  0  0  4           0  0  0
   -1.5361    0.0006    4.0448 C   0  0  0  0  0  4           0  0  0
   -0.5425    0.0000    1.3969 C   0  0  0  0  0  4           0  0  0
   -2.0089    0.6106    7.7673 C   0  0  0  0  0  4           0  0  0
   -3.3124   -0.5978    5.6388 C   0  0  0  0  0  4           0  0  0
   -1.2930    1.2055    3.3691 C   0  0  0  0  0  4           0  0  0
   -1.2692   -1.2048    3.3787 C   0  0  0  0  0  4           0  0  0
   -0.8005    1.2053    2.0611 C   0  0  0  0  0  4           0  0  0
   -0.7758   -1.2051    2.0708 C   0  0  0  0  0  4           0  0  0
   -3.2564    0.0194    7.9639 C   0  0  0  0  0  4           0  0  0
   -3.9060   -0.5908    6.9006 C   0  0  0  0  0  4           0  0  0
    1.9418   -2.5071    0.1127 C   0  0  0  0  0  4           0  0  0
    0.0000    0.0000    0.0000 C   0  0  0  0  0  4           0  0  0
    1.7418    2.5304   -0.1007 C   0  0  0  0  0  4           0  0  0
    2.4132    3.4644    0.9015 C   0  0  0  0  0  4           0  0  0
    2.2154    3.0681    2.3652 C   0  0  0  0  0  4           0  0  0
    2.9097    4.0406    3.3045 C   0  0  0  0  0  4           0  0  0
  1 10  1  0     0  0
  2 26  2  0     0  0
  3 26  1  0     0  0
  4  5  2  0     0  0
  4  6  1  0     0  0
  5  7  1  0     0  0
  6 11  1  0     0  0
  7 11  2  0     0  0
  8 12  1  0     0  0
  8 13  1  0     0  0
  8 27  1  0     0  0
  9 10  1  0     0  0
  9 12  2  0     0  0
 10 13  2  0     0  0
 11 14  1  0     0  0
 12 28  1  0     0  0
 13 26  1  0     0  0
 14 15  1  0     0  0
 14 18  2  0     0  0
 15 16  1  0     0  0
 15 19  2  0     0  0
 16 20  2  0     0  0
 16 21  1  0     0  0
 17 22  2  0     0  0
 17 23  1  0     0  0
 17 27  1  0     0  0
 18 24  1  0     0  0
 19 25  1  0     0  0
 20 22  1  0     0  0
 21 23  2  0     0  0
 24 25  2  0     0  0
 28 29  1  0     0  0
 29 30  1  0     0  0
 30 31  1  0     0  0
M  END
> <standard_type>
pIC50

> <# Confs.>
25

> <canonical_smiles>
ClC(N=C1CCCC)=C(C(O)=O)N1CC2=CC=C(C3=CC=CC=C3C4=NN=NN4)C=C2

> <standard_relation>
=

> <Publication_ID>
Krovat_2003

> <predicted_activity_value>
8.130768280269024

> <actual_activity_value>
8.886056647693163

> <Compound>
1

> <standard_units>
nM

> hash
1800136262960392497

$$$$
1_
XXILIB    08252103503D 0   0.00000     0.00000

 31 34  0     1  0            999 V2000
    5.0450    1.3797   -0.3076 Cl  0  0  0  0  0  1           0  0  0
    1.2178    3.0397   -0.9457 O   0  0  0  0  0  2           0  0  0
    2.5112    3.2124    0.9055 O   0  0  0  0  0  2           0  0  0
   -5.2692    1.6865    2.8785 N   0  0  0  0  0  3           0  0  0
   -6.2440    1.1282    3.5834 N   0  0  0  0  0  3           0  0  0
   -4.1531    1.4499    3.5808 N   0  0  0  0  0  3           0  0  0
   -5.7542    0.5395    4.7263 N   0  0  0  0  0  3           0  0  0
    1.4535    0.0000    0.0000 N   0  0  0  0  0  3           0  0  0
    3.5186   -0.8131   -0.1075 N   0  0  0  0  0  3           0  0  0
    3.5558    0.5529   -0.1734 C   0  0  0  0  0  4           0  0  0
   -4.4517    0.7440    4.7149 C   0  0  0  0  0  4           0  0  0
    2.2476   -1.1332    0.0000 C   0  0  0  0  0  4           0  0  0
    2.2852    1.1083   -0.0898 C   0  0  0  0  0  4           0  0  0
   -3.4752    0.3270    5.6915 C   0  0  0  0  0  4           0  0  0
   -2.1234    0.0297    5.3808 C   0  0  0  0  0  4           0  0  0
   -1.5881    0.0225    4.0246 C   0  0  0  0  0  4           0  0  0
   -0.5425    0.0000    1.3969 C   0  0  0  0  0  4           0  0  0
   -3.9062    0.2325    7.0304 C   0  0  0  0  0  4           0  0  0
   -1.2534   -0.3172    6.4384 C   0  0  0  0  0  4           0  0  0
   -2.1106   -0.8422    3.0515 C   0  0  0  0  0  4           0  0  0
   -0.5389    0.8802    3.6623 C   0  0  0  0  0  4           0  0  0
   -1.5950   -0.8523    1.7526 C   0  0  0  0  0  4           0  0  0
   -0.0237    0.8709    2.3629 C   0  0  0  0  0  4           0  0  0
   -3.0268   -0.1214    8.0530 C   0  0  0  0  0  4           0  0  0
   -1.6980   -0.3904    7.7581 C   0  0  0  0  0  4           0  0  0
    1.9418    2.5071   -0.1127 C   0  0  0  0  0  4           0  0  0
    0.0000    0.0000   -0.0000 C   0  0  0  0  0  4           0  0  0
    1.7418   -2.5304    0.1007 C   0  0  0  0  0  4           0  0  0
    2.8684   -3.5589    0.0732 C   0  0  0  0  0  4           0  0  0
    2.4006   -5.0113    0.1740 C   0  0  0  0  0  4           0  0  0
    3.5732   -5.9779    0.1404 C   0  0  0  0  0  4           0  0  0
  1 10  1  0     0  0
  2 26  2  0     0  0
  3 26  1  0     0  0
  4  5  2  0     0  0
  4  6  1  0     0  0
  5  7  1  0     0  0
  6 11  1  0     0  0
  7 11  2  0     0  0
  8 12  1  0     0  0
  8 13  1  0     0  0
  8 27  1  0     0  0
  9 10  1  0     0  0
  9 12  2  0     0  0
 10 13  2  0     0  0
 11 14  1  0     0  0
 12 28  1  0     0  0
 13 26  1  0     0  0
 14 15  1  0     0  0
 14 18  2  0     0  0
 15 16  1  0     0  0
 15 19  2  0     0  0
 16 20  2  0     0  0
 16 21  1  0     0  0
 17 22  2  0     0  0
 17 23  1  0     0  0
 17 27  1  0     0  0
 18 24  1  0     0  0
 19 25  1  0     0  0
 20 22  1  0     0  0
 21 23  2  0     0  0
 24 25  2  0     0  0
 28 29  1  0     0  0
 29 30  1  0     0  0
 30 31  1  0     0  0
M  END
> <standard_type>
pIC50

> <# Confs.>
25

> <canonical_smiles>
ClC(N=C1CCCC)=C(C(O)=O)N1CC2=CC=C(C3=CC=CC=C3C4=NN=NN4)C=C2

> <standard_relation>
=

> <Publication_ID>
Krovat_2003

> <predicted_activity_value>
8.130768280269024

> <actual_activity_value>
8.886056647693163

> <Compound>
1

> <standard_units>
nM

> hash
1800136262960392497

$$$$
1_
XXILIB    08252103503D 0   0.00000     0.00000

 31 34  0     1  0            999 V2000
    5.0450   -1.3797    0.3076 Cl  0  0  0  0  0  1           0  0  0
    1.3593   -3.1028   -0.7858 O   0  0  0  0  0  2           0  0  0
    2.3325   -3.1330    1.2591 O   0  0  0  0  0  2           0  0  0
   -5.4197    1.7133    3.0981 N   0  0  0  0  0  3           0  0  0
   -5.3281    2.7987    3.8546 N   0  0  0  0  0  3           0  0  0
   -4.6820    0.7883    3.7267 N   0  0  0  0  0  3           0  0  0
   -4.5385    2.5685    4.9575 N   0  0  0  0  0  3           0  0  0
    1.4535    0.0000    0.0000 N   0  0  0  0  0  3           0  0  0
    3.5186    0.8131    0.1075 N   0  0  0  0  0  3           0  0  0
    3.5558   -0.5529    0.1734 C   0  0  0  0  0  4           0  0  0
   -4.1423    1.3140    4.8695 C   0  0  0  0  0  4           0  0  0
    2.2476    1.1332    0.0000 C   0  0  0  0  0  4           0  0  0
    2.2852   -1.1083    0.0898 C   0  0  0  0  0  4           0  0  0
   -3.2945    0.5809    5.7778 C   0  0  0  0  0  4           0  0  0
   -2.0539    0.0012    5.4078 C   0  0  0  0  0  4           0  0  0
   -1.5361    0.0006    4.0448 C   0  0  0  0  0  4           0  0  0
   -0.5425    0.0000    1.3969 C   0  0  0  0  0  4           0  0  0
   -3.7356    0.4600    7.1114 C   0  0  0  0  0  4           0  0  0
   -1.2927   -0.6467    6.4061 C   0  0  0  0  0  4           0  0  0
   -1.2930    1.2055    3.3691 C   0  0  0  0  0  4           0  0  0
   -1.2692   -1.2048    3.3787 C   0  0  0  0  0  4           0  0  0
   -0.8005    1.2053    2.0611 C   0  0  0  0  0  4           0  0  0
   -0.7758   -1.2051    2.0708 C   0  0  0  0  0  4           0  0  0
   -2.9669   -0.1936    8.0739 C   0  0  0  0  0  4           0  0  0
   -1.7418   -0.7419    7.7229 C   0  0  0  0  0  4           0  0  0
    1.9418   -2.5071    0.1127 C   0  0  0  0  0  4           0  0  0
    0.0000    0.0000   -0.0000 C   0  0  0  0  0  4           0  0  0
    1.7418    2.5304   -0.1007 C   0  0  0  0  0  4           0  0  0
    2.4132    3.4644    0.9015 C   0  0  0  0  0  4           0  0  0
    1.9278    4.9131    0.8385 C   0  0  0  0  0  4           0  0  0
    2.6381    5.7837    1.8622 C   0  0  0  0  0  4           0  0  0
  1 10  1  0     0  0
  2 26  2  0     0  0
  3 26  1  0     0  0
  4  5  2  0     0  0
  4  6  1  0     0  0
  5  7  1  0     0  0
  6 11  1  0     0  0
  7 11  2  0     0  0
  8 12  1  0     0  0
  8 13  1  0     0  0
  8 27  1  0     0  0
  9 10  1  0     0  0
  9 12  2  0     0  0
 10 13  2  0     0  0
 11 14  1  0     0  0
 12 28  1  0     0  0
 13 26  1  0     0  0
 14 15  1  0     0  0
 14 18  2  0     0  0
 15 16  1  0     0  0
 15 19  2  0     0  0
 16 20  2  0     0  0
 16 21  1  0     0  0
 17 22  2  0     0  0
 17 23  1  0     0  0
 17 27  1  0     0  0
 18 24  1  0     0  0
 19 25  1  0     0  0
 20 22  1  0     0  0
 21 23  2  0     0  0
 24 25  2  0     0  0
 28 29  1  0     0  0
 29 30  1  0     0  0
 30 31  1  0     0  0
M  END
> <standard_type>
pIC50

> <# Confs.>
25

> <canonical_smiles>
ClC(N=C1CCCC)=C(C(O)=O)N1CC2=CC=C(C3=CC=CC=C3C4=NN=NN4)C=C2

> <standard_relation>
=

> <Publication_ID>
Krovat_2003

> <predicted_activity_value>
8.130768280269024

> <actual_activity_value>
8.886056647693163

> <Compound>
1

> <standard_units>
nM

> hash
1800136262960392497

$$$$
1_
XXILIB    08252103503D 0   0.00000     0.00000

 31 34  0     1  0            999 V2000
    5.0450    1.3797   -0.3076 Cl  0  0  0  0  0  1           0  0  0
    1.2178    3.0397   -0.9457 O   0  0  0  0  0  2           0  0  0
    2.5112    3.2124    0.9055 O   0  0  0  0  0  2           0  0  0
   -0.2944   -3.9907    5.0886 N   0  0  0  0  0  3           0  0  0
   -1.4900   -4.5041    5.3452 N   0  0  0  0  0  3           0  0  0
   -0.4035   -2.6895    5.3883 N   0  0  0  0  0  3           0  0  0
   -2.3553   -3.5386    5.8054 N   0  0  0  0  0  3           0  0  0
    1.4535    0.0000   -0.0000 N   0  0  0  0  0  3           0  0  0
    3.5186   -0.8131   -0.1075 N   0  0  0  0  0  3           0  0  0
    3.5558    0.5529   -0.1734 C   0  0  0  0  0  4           0  0  0
   -1.6692   -2.4129    5.8300 C   0  0  0  0  0  4           0  0  0
    2.2476   -1.1332    0.0000 C   0  0  0  0  0  4           0  0  0
    2.2852    1.1083   -0.0898 C   0  0  0  0  0  4           0  0  0
   -2.1191   -1.1032    6.2343 C   0  0  0  0  0  4           0  0  0
   -2.1234    0.0297    5.3808 C   0  0  0  0  0  4           0  0  0
   -1.5881    0.0225    4.0246 C   0  0  0  0  0  4           0  0  0
   -0.5425    0.0000    1.3969 C   0  0  0  0  0  4           0  0  0
   -2.5945   -0.9671    7.5545 C   0  0  0  0  0  4           0  0  0
   -2.6395    1.2452    5.8830 C   0  0  0  0  0  4           0  0  0
   -2.1106   -0.8422    3.0515 C   0  0  0  0  0  4           0  0  0
   -0.5389    0.8802    3.6623 C   0  0  0  0  0  4           0  0  0
   -1.5950   -0.8523    1.7526 C   0  0  0  0  0  4           0  0  0
   -0.0237    0.8709    2.3629 C   0  0  0  0  0  4           0  0  0
   -3.0897    0.2481    8.0262 C   0  0  0  0  0  4           0  0  0
   -3.1183    1.3535    7.1883 C   0  0  0  0  0  4           0  0  0
    1.9418    2.5071   -0.1127 C   0  0  0  0  0  4           0  0  0
    0.0000    0.0000    0.0000 C   0  0  0  0  0  4           0  0  0
    1.7418   -2.5304    0.1007 C   0  0  0  0  0  4           0  0  0
    2.5481   -3.3698    1.0870 C   0  0  0  0  0  4           0  0  0
    2.5468   -2.8358    2.5200 C   0  0  0  0  0  4           0  0  0
    3.3676   -3.7198    3.4448 C   0  0  0  0  0  4           0  0  0
  1 10  1  0     0  0
  2 26  2  0     0  0
  3 26  1  0     0  0
  4  5  2  0     0  0
  4  6  1  0     0  0
  5  7  1  0     0  0
  6 11  1  0     0  0
  7 11  2  0     0  0
  8 12  1  0     0  0
  8 13  1  0     0  0
  8 27  1  0     0  0
  9 10  1  0     0  0
  9 12  2  0     0  0
 10 13  2  0     0  0
 11 14  1  0     0  0
 12 28  1  0     0  0
 13 26  1  0     0  0
 14 15  1  0     0  0
 14 18  2  0     0  0
 15 16  1  0     0  0
 15 19  2  0     0  0
 16 20  2  0     0  0
 16 21  1  0     0  0
 17 22  2  0     0  0
 17 23  1  0     0  0
 17 27  1  0     0  0
 18 24  1  0     0  0
 19 25  1  0     0  0
 20 22  1  0     0  0
 21 23  2  0     0  0
 24 25  2  0     0  0
 28 29  1  0     0  0
 29 30  1  0     0  0
 30 31  1  0     0  0
M  END
> <standard_type>
pIC50

> <# Confs.>
25

> <canonical_smiles>
ClC(N=C1CCCC)=C(C(O)=O)N1CC2=CC=C(C3=CC=CC=C3C4=NN=NN4)C=C2

> <standard_relation>
=

> <Publication_ID>
Krovat_2003

> <predicted_activity_value>
8.130768280269024

> <actual_activity_value>
8.886056647693163

> <Compound>
1

> <standard_units>
nM

> hash
1800136262960392497

$$$$
1_
XXILIB    08252103503D 0   0.00000     0.00000

 31 34  0     1  0            999 V2000
    5.0450   -1.3797    0.3076 Cl  0  0  0  0  0  1           0  0  0
    1.3593   -3.1028   -0.7858 O   0  0  0  0  0  2           0  0  0
    2.3325   -3.1330    1.2591 O   0  0  0  0  0  2           0  0  0
   -5.7237   -0.4995    2.9835 N   0  0  0  0  0  3           0  0  0
   -6.1836    0.6177    3.5305 N   0  0  0  0  0  3           0  0  0
   -4.6678   -0.8441    3.7328 N   0  0  0  0  0  3           0  0  0
   -5.4277    0.9833    4.6204 N   0  0  0  0  0  3           0  0  0
    1.4535   -0.0000   -0.0000 N   0  0  0  0  0  3           0  0  0
    3.5186    0.8131    0.1075 N   0  0  0  0  0  3           0  0  0
    3.5558   -0.5529    0.1734 C   0  0  0  0  0  4           0  0  0
   -4.4876    0.0664    4.7388 C   0  0  0  0  0  4           0  0  0
    2.2476    1.1332    0.0000 C   0  0  0  0  0  4           0  0  0
    2.2852   -1.1083    0.0898 C   0  0  0  0  0  4           0  0  0
   -3.4366   -0.0109    5.7241 C   0  0  0  0  0  4           0  0  0
   -2.0539    0.0012    5.4078 C   0  0  0  0  0  4           0  0  0
   -1.5361    0.0006    4.0448 C   0  0  0  0  0  4           0  0  0
   -0.5425    0.0000    1.3969 C   0  0  0  0  0  4           0  0  0
   -3.8286   -0.0848    7.0763 C   0  0  0  0  0  4           0  0  0
   -1.1231   -0.0268    6.4702 C   0  0  0  0  0  4           0  0  0
   -1.2930    1.2055    3.3691 C   0  0  0  0  0  4           0  0  0
   -1.2692   -1.2048    3.3787 C   0  0  0  0  0  4           0  0  0
   -0.8005    1.2053    2.0611 C   0  0  0  0  0  4           0  0  0
   -0.7758   -1.2051    2.0708 C   0  0  0  0  0  4           0  0  0
   -2.8871   -0.1206    8.1042 C   0  0  0  0  0  4           0  0  0
   -1.5335   -0.0852    7.8017 C   0  0  0  0  0  4           0  0  0
    1.9418   -2.5071    0.1127 C   0  0  0  0  0  4           0  0  0
    0.0000   -0.0000    0.0000 C   0  0  0  0  0  4           0  0  0
    1.7418    2.5304   -0.1007 C   0  0  0  0  0  4           0  0  0
    2.5481    3.3698   -1.0870 C   0  0  0  0  0  4           0  0  0
    2.5468    2.8358   -2.5200 C   0  0  0  0  0  4           0  0  0
    3.3676    3.7198   -3.4448 C   0  0  0  0  0  4           0  0  0
  1 10  1  0     0  0
  2 26  2  0     0  0
  3 26  1  0     0  0
  4  5  2  0     0  0
  4  6  1  0     0  0
  5  7  1  0     0  0
  6 11  1  0     0  0
  7 11  2  0     0  0
  8 12  1  0     0  0
  8 13  1  0     0  0
  8 27  1  0     0  0
  9 10  1  0     0  0
  9 12  2  0     0  0
 10 13  2  0     0  0
 11 14  1  0     0  0
 12 28  1  0     0  0
 13 26  1  0     0  0
 14 15  1  0     0  0
 14 18  2  0     0  0
 15 16  1  0     0  0
 15 19  2  0     0  0
 16 20  2  0     0  0
 16 21  1  0     0  0
 17 22  2  0     0  0
 17 23  1  0     0  0
 17 27  1  0     0  0
 18 24  1  0     0  0
 19 25  1  0     0  0
 20 22  1  0     0  0
 21 23  2  0     0  0
 24 25  2  0     0  0
 28 29  1  0     0  0
 29 30  1  0     0  0
 30 31  1  0     0  0
M  END
> <standard_type>
pIC50

> <# Confs.>
25

> <canonical_smiles>
ClC(N=C1CCCC)=C(C(O)=O)N1CC2=CC=C(C3=CC=CC=C3C4=NN=NN4)C=C2

> <standard_relation>
=

> <Publication_ID>
Krovat_2003

> <predicted_activity_value>
8.130768280269024

> <actual_activity_value>
8.886056647693163

> <Compound>
1

> <standard_units>
nM

> hash
1800136262960392497

$$$$
9_
XXILIB    08252103503D 0   0.00000     0.00000

 34 36  0     1  0            999 V2000
    5.0080   -1.4815   -0.1021 Cl  0  0  0  0  0  1           0  0  0
    0.3717    0.1347    9.8366 O   0  0  0  0  0  2           0  0  0
    1.2658   -2.3011   -2.4169 O   0  0  0  0  0  2           0  0  0
   -0.7833   -1.5797    6.3267 O   0  0  0  0  0  2           0  0  0
    1.8058   -4.3462   -1.5016 O   0  0  0  0  0  2           0  0  0
    0.0392    0.7791    7.6756 O   0  0  0  0  0  2           0  0  0
    1.4519    0.0000   -0.0000 N   0  0  0  0  0  3           0  0  0
    3.5357    0.7699   -0.0300 N   0  0  0  0  0  3           0  0  0
   -2.1254    0.0120    5.3110 N   0  0  0  0  0  3           0  0  0
    3.5498   -0.5999   -0.0532 C   0  0  0  0  0  4           0  0  0
    2.2647    1.1169    0.0000 C   0  0  0  0  0  4           0  0  0
    2.2666   -1.1149   -0.0368 C   0  0  0  0  0  4           0  0  0
   -1.5762   -0.0184    4.0146 C   0  0  0  0  0  4           0  0  0
   -1.7677   -0.1334    8.8189 C   0  0  0  0  0  4           0  0  0
   -2.4224   -0.5618    7.6511 C   0  0  0  0  0  4           0  0  0
   -0.5415    0.0000    1.3968 C   0  0  0  0  0  4           0  0  0
   -0.5145   -0.8615    3.6712 C   0  0  0  0  0  4           0  0  0
   -2.1218    0.8297    3.0457 C   0  0  0  0  0  4           0  0  0
   -2.4697   -0.0443   10.0277 C   0  0  0  0  0  4           0  0  0
   -3.7883   -0.8760    7.7099 C   0  0  0  0  0  4           0  0  0
   -0.0042   -0.8528    2.3700 C   0  0  0  0  0  4           0  0  0
   -1.6092    0.8363    1.7462 C   0  0  0  0  0  4           0  0  0
   -3.8266   -0.3614   10.0722 C   0  0  0  0  0  4           0  0  0
   -4.4849   -0.7720    8.9154 C   0  0  0  0  0  4           0  0  0
   -0.3497    0.2617    8.8619 C   0  0  0  0  0  4           0  0  0
    1.5787   -2.9999   -1.4621 C   0  0  0  0  0  4           0  0  0
   -1.6993   -0.7613    6.3724 C   0  0  0  0  0  4           0  0  0
    1.6560   -4.9594   -2.7865 C   0  0  0  0  0  4           0  0  0
    0.0000    0.0000    0.0000 C   0  0  0  0  0  4           0  0  0
    1.7724    2.5193    0.0302 C   0  0  0  0  0  4           0  0  0
    1.7845   -2.5190   -0.0479 C   0  0  0  0  0  4           0  0  0
    1.5524    3.0862   -1.3688 C   0  0  0  0  0  4           0  0  0
    1.0451    4.5287   -1.3985 C   0  0  0  0  0  4           0  0  0
    0.8385    5.0569   -2.8104 C   0  0  0  0  0  4           0  0  0
  1 10  1  0     0  0
  2 25  2  0     0  0
  3 26  2  0     0  0
  4 27  2  0     0  0
  5 26  1  0     0  0
  5 28  1  0     0  0
  6 25  1  0     0  0
  7 11  1  0     0  0
  7 12  1  0     0  0
  7 29  1  0     0  0
  8 10  1  0     0  0
  8 11  2  0     0  0
  9 13  1  0     0  0
  9 27  1  0     0  0
 10 12  2  0     0  0
 11 30  1  0     0  0
 12 31  1  0     0  0
 13 17  2  0     0  0
 13 18  1  0     0  0
 14 15  1  0     0  0
 14 19  2  0     0  0
 14 25  1  0     0  0
 15 20  2  0     0  0
 15 27  1  0     0  0
 16 21  2  0     0  0
 16 22  1  0     0  0
 16 29  1  0     0  0
 17 21  1  0     0  0
 18 22  2  0     0  0
 19 23  1  0     0  0
 20 24  1  0     0  0
 23 24  2  0     0  0
 26 31  1  0     0  0
 30 32  1  0     0  0
 32 33  1  0     0  0
 33 34  1  0     0  0
M  END
> <standard_type>
pIC50

> <# Confs.>
25

> <canonical_smiles>
ClC(N=C1CCCC)=C(CC(OC)=O)N1CC2=CC=C(NC(C3=CC=CC=C3C(O)=O)=O)C=C2

> <standard_relation>
=

> <Publication_ID>
nan

> <predicted_activity_value>
5.468521082957745

> <actual_activity_value>
6.853871964321762

> <Compound>
9

> <standard_units>
nM

> hash
16389122266415346093

$$$$
9_
XXILIB    08252103503D 0   0.00000     0.00000

 34 36  0     1  0            999 V2000
    5.0080   -1.4815   -0.1021 Cl  0  0  0  0  0  1           0  0  0
   -3.1411   -3.9022    8.4747 O   0  0  0  0  0  2           0  0  0
    1.2658   -2.3011   -2.4169 O   0  0  0  0  0  2           0  0  0
   -3.7075   -1.5566    5.1930 O   0  0  0  0  0  2           0  0  0
    1.8058   -4.3462   -1.5016 O   0  0  0  0  0  2           0  0  0
   -1.8554   -2.8111    6.9411 O   0  0  0  0  0  2           0  0  0
    1.4519    0.0000   -0.0000 N   0  0  0  0  0  3           0  0  0
    3.5357    0.7699   -0.0300 N   0  0  0  0  0  3           0  0  0
   -2.0565    0.0619    5.3377 N   0  0  0  0  0  3           0  0  0
    3.5498   -0.5999   -0.0532 C   0  0  0  0  0  4           0  0  0
    2.2647    1.1169    0.0000 C   0  0  0  0  0  4           0  0  0
    2.2666   -1.1149   -0.0368 C   0  0  0  0  0  4           0  0  0
   -1.5761    0.0185    4.0147 C   0  0  0  0  0  4           0  0  0
   -3.3276   -1.5396    8.2141 C   0  0  0  0  0  4           0  0  0
   -3.4190   -0.5071    7.2647 C   0  0  0  0  0  4           0  0  0
   -0.5415   -0.0000    1.3968 C   0  0  0  0  0  4           0  0  0
   -2.1078   -0.8473    3.0535 C   0  0  0  0  0  4           0  0  0
   -0.5301    0.8773    3.6628 C   0  0  0  0  0  4           0  0  0
   -3.7437   -1.3220    9.5338 C   0  0  0  0  0  4           0  0  0
   -3.9102    0.7452    7.6627 C   0  0  0  0  0  4           0  0  0
   -1.5944   -0.8528    1.7534 C   0  0  0  0  0  4           0  0  0
   -0.0190    0.8692    2.3627 C   0  0  0  0  0  4           0  0  0
   -4.2316   -0.0730    9.9152 C   0  0  0  0  0  4           0  0  0
   -4.3106    0.9590    8.9830 C   0  0  0  0  0  4           0  0  0
   -2.7884   -2.8773    7.9165 C   0  0  0  0  0  4           0  0  0
    1.5787   -2.9999   -1.4621 C   0  0  0  0  0  4           0  0  0
   -3.0796   -0.7191    5.8372 C   0  0  0  0  0  4           0  0  0
    1.6560   -4.9594   -2.7865 C   0  0  0  0  0  4           0  0  0
    0.0000    0.0000    0.0000 C   0  0  0  0  0  4           0  0  0
    1.7724    2.5193    0.0302 C   0  0  0  0  0  4           0  0  0
    1.7845   -2.5190   -0.0479 C   0  0  0  0  0  4           0  0  0
    2.5020    3.4110   -0.9696 C   0  0  0  0  0  4           0  0  0
    2.3715    2.9710   -2.4284 C   0  0  0  0  0  4           0  0  0
    3.1123    3.8850   -3.3932 C   0  0  0  0  0  4           0  0  0
  1 10  1  0     0  0
  2 25  2  0     0  0
  3 26  2  0     0  0
  4 27  2  0     0  0
  5 26  1  0     0  0
  5 28  1  0     0  0
  6 25  1  0     0  0
  7 11  1  0     0  0
  7 12  1  0     0  0
  7 29  1  0     0  0
  8 10  1  0     0  0
  8 11  2  0     0  0
  9 13  1  0     0  0
  9 27  1  0     0  0
 10 12  2  0     0  0
 11 30  1  0     0  0
 12 31  1  0     0  0
 13 17  2  0     0  0
 13 18  1  0     0  0
 14 15  1  0     0  0
 14 19  2  0     0  0
 14 25  1  0     0  0
 15 20  2  0     0  0
 15 27  1  0     0  0
 16 21  2  0     0  0
 16 22  1  0     0  0
 16 29  1  0     0  0
 17 21  1  0     0  0
 18 22  2  0     0  0
 19 23  1  0     0  0
 20 24  1  0     0  0
 23 24  2  0     0  0
 26 31  1  0     0  0
 30 32  1  0     0  0
 32 33  1  0     0  0
 33 34  1  0     0  0
M  END
> <standard_type>
pIC50

> <# Confs.>
25

> <canonical_smiles>
ClC(N=C1CCCC)=C(CC(OC)=O)N1CC2=CC=C(NC(C3=CC=CC=C3C(O)=O)=O)C=C2

> <standard_relation>
=

> <Publication_ID>
nan

> <predicted_activity_value>
5.468521082957745

> <actual_activity_value>
6.853871964321762

> <Compound>
9

> <standard_units>
nM

> hash
16389122266415346093

$$$$
9_
XXILIB    08252103503D 0   0.00000     0.00000

 34 36  0     1  0            999 V2000
    5.0080   -1.4815   -0.1021 Cl  0  0  0  0  0  1           0  0  0
    0.3717    0.1347    9.8366 O   0  0  0  0  0  2           0  0  0
    1.2658   -2.3011   -2.4169 O   0  0  0  0  0  2           0  0  0
   -0.7833   -1.5797    6.3267 O   0  0  0  0  0  2           0  0  0
    1.8058   -4.3462   -1.5016 O   0  0  0  0  0  2           0  0  0
    0.0392    0.7791    7.6756 O   0  0  0  0  0  2           0  0  0
    1.4519    0.0000   -0.0000 N   0  0  0  0  0  3           0  0  0
    3.5357    0.7699   -0.0300 N   0  0  0  0  0  3           0  0  0
   -2.1254    0.0120    5.3110 N   0  0  0  0  0  3           0  0  0
    3.5498   -0.5999   -0.0532 C   0  0  0  0  0  4           0  0  0
    2.2647    1.1169    0.0000 C   0  0  0  0  0  4           0  0  0
    2.2666   -1.1149   -0.0368 C   0  0  0  0  0  4           0  0  0
   -1.5762   -0.0184    4.0146 C   0  0  0  0  0  4           0  0  0
   -1.7677   -0.1334    8.8189 C   0  0  0  0  0  4           0  0  0
   -2.4224   -0.5618    7.6511 C   0  0  0  0  0  4           0  0  0
   -0.5415    0.0000    1.3968 C   0  0  0  0  0  4           0  0  0
   -0.5145   -0.8615    3.6712 C   0  0  0  0  0  4           0  0  0
   -2.1218    0.8297    3.0457 C   0  0  0  0  0  4           0  0  0
   -2.4697   -0.0443   10.0277 C   0  0  0  0  0  4           0  0  0
   -3.7883   -0.8760    7.7099 C   0  0  0  0  0  4           0  0  0
   -0.0042   -0.8528    2.3700 C   0  0  0  0  0  4           0  0  0
   -1.6092    0.8363    1.7462 C   0  0  0  0  0  4           0  0  0
   -3.8266   -0.3614   10.0722 C   0  0  0  0  0  4           0  0  0
   -4.4849   -0.7720    8.9154 C   0  0  0  0  0  4           0  0  0
   -0.3497    0.2617    8.8619 C   0  0  0  0  0  4           0  0  0
    1.5787   -2.9999   -1.4621 C   0  0  0  0  0  4           0  0  0
   -1.6993   -0.7613    6.3724 C   0  0  0  0  0  4           0  0  0
    1.6560   -4.9594   -2.7865 C   0  0  0  0  0  4           0  0  0
    0.0000    0.0000    0.0000 C   0  0  0  0  0  4           0  0  0
    1.7724    2.5193    0.0302 C   0  0  0  0  0  4           0  0  0
    1.7845   -2.5190   -0.0479 C   0  0  0  0  0  4           0  0  0
    1.5524    3.0862   -1.3688 C   0  0  0  0  0  4           0  0  0
    2.8044    3.1190   -2.2465 C   0  0  0  0  0  4           0  0  0
    2.5437    3.6906   -3.6323 C   0  0  0  0  0  4           0  0  0
  1 10  1  0     0  0
  2 25  2  0     0  0
  3 26  2  0     0  0
  4 27  2  0     0  0
  5 26  1  0     0  0
  5 28  1  0     0  0
  6 25  1  0     0  0
  7 11  1  0     0  0
  7 12  1  0     0  0
  7 29  1  0     0  0
  8 10  1  0     0  0
  8 11  2  0     0  0
  9 13  1  0     0  0
  9 27  1  0     0  0
 10 12  2  0     0  0
 11 30  1  0     0  0
 12 31  1  0     0  0
 13 17  2  0     0  0
 13 18  1  0     0  0
 14 15  1  0     0  0
 14 19  2  0     0  0
 14 25  1  0     0  0
 15 20  2  0     0  0
 15 27  1  0     0  0
 16 21  2  0     0  0
 16 22  1  0     0  0
 16 29  1  0     0  0
 17 21  1  0     0  0
 18 22  2  0     0  0
 19 23  1  0     0  0
 20 24  1  0     0  0
 23 24  2  0     0  0
 26 31  1  0     0  0
 30 32  1  0     0  0
 32 33  1  0     0  0
 33 34  1  0     0  0
M  END
> <standard_type>
pIC50

> <# Confs.>
25

> <canonical_smiles>
ClC(N=C1CCCC)=C(CC(OC)=O)N1CC2=CC=C(NC(C3=CC=CC=C3C(O)=O)=O)C=C2

> <standard_relation>
=

> <Publication_ID>
nan

> <predicted_activity_value>
5.468521082957745

> <actual_activity_value>
6.853871964321762

> <Compound>
9

> <standard_units>
nM

> hash
16389122266415346093

$$$$
9_
XXILIB    08252103503D 0   0.00000     0.00000

 34 36  0     1  0            999 V2000
    5.0080   -1.4815   -0.1021 Cl  0  0  0  0  0  1           0  0  0
    0.3717    0.1347    9.8366 O   0  0  0  0  0  2           0  0  0
    1.2658   -2.3011   -2.4169 O   0  0  0  0  0  2           0  0  0
   -0.7833   -1.5797    6.3267 O   0  0  0  0  0  2           0  0  0
    1.8058   -4.3462   -1.5016 O   0  0  0  0  0  2           0  0  0
    0.0392    0.7791    7.6756 O   0  0  0  0  0  2           0  0  0
    1.4519    0.0000   -0.0000 N   0  0  0  0  0  3           0  0  0
    3.5357    0.7699   -0.0300 N   0  0  0  0  0  3           0  0  0
   -2.1254    0.0120    5.3110 N   0  0  0  0  0  3           0  0  0
    3.5498   -0.5999   -0.0532 C   0  0  0  0  0  4           0  0  0
    2.2647    1.1169    0.0000 C   0  0  0  0  0  4           0  0  0
    2.2666   -1.1149   -0.0368 C   0  0  0  0  0  4           0  0  0
   -1.5762   -0.0184    4.0146 C   0  0  0  0  0  4           0  0  0
   -1.7677   -0.1334    8.8189 C   0  0  0  0  0  4           0  0  0
   -2.4224   -0.5618    7.6511 C   0  0  0  0  0  4           0  0  0
   -0.5415    0.0000    1.3968 C   0  0  0  0  0  4           0  0  0
   -0.5145   -0.8615    3.6712 C   0  0  0  0  0  4           0  0  0
   -2.1218    0.8297    3.0457 C   0  0  0  0  0  4           0  0  0
   -2.4697   -0.0443   10.0277 C   0  0  0  0  0  4           0  0  0
   -3.7883   -0.8760    7.7099 C   0  0  0  0  0  4           0  0  0
   -0.0042   -0.8528    2.3700 C   0  0  0  0  0  4           0  0  0
   -1.6092    0.8363    1.7462 C   0  0  0  0  0  4           0  0  0
   -3.8266   -0.3614   10.0722 C   0  0  0  0  0  4           0  0  0
   -4.4849   -0.7720    8.9154 C   0  0  0  0  0  4           0  0  0
   -0.3497    0.2617    8.8619 C   0  0  0  0  0  4           0  0  0
    1.5787   -2.9999   -1.4621 C   0  0  0  0  0  4           0  0  0
   -1.6993   -0.7613    6.3724 C   0  0  0  0  0  4           0  0  0
    1.6560   -4.9594   -2.7865 C   0  0  0  0  0  4           0  0  0
    0.0000    0.0000    0.0000 C   0  0  0  0  0  4           0  0  0
    1.7724    2.5193    0.0302 C   0  0  0  0  0  4           0  0  0
    1.7845   -2.5190   -0.0479 C   0  0  0  0  0  4           0  0  0
    1.6088    3.0452    1.4528 C   0  0  0  0  0  4           0  0  0
    1.1039    4.4859    1.5447 C   0  0  0  0  0  4           0  0  0
    0.9542    4.9727    2.9785 C   0  0  0  0  0  4           0  0  0
  1 10  1  0     0  0
  2 25  2  0     0  0
  3 26  2  0     0  0
  4 27  2  0     0  0
  5 26  1  0     0  0
  5 28  1  0     0  0
  6 25  1  0     0  0
  7 11  1  0     0  0
  7 12  1  0     0  0
  7 29  1  0     0  0
  8 10  1  0     0  0
  8 11  2  0     0  0
  9 13  1  0     0  0
  9 27  1  0     0  0
 10 12  2  0     0  0
 11 30  1  0     0  0
 12 31  1  0     0  0
 13 17  2  0     0  0
 13 18  1  0     0  0
 14 15  1  0     0  0
 14 19  2  0     0  0
 14 25  1  0     0  0
 15 20  2  0     0  0
 15 27  1  0     0  0
 16 21  2  0     0  0
 16 22  1  0     0  0
 16 29  1  0     0  0
 17 21  1  0     0  0
 18 22  2  0     0  0
 19 23  1  0     0  0
 20 24  1  0     0  0
 23 24  2  0     0  0
 26 31  1  0     0  0
 30 32  1  0     0  0
 32 33  1  0     0  0
 33 34  1  0     0  0
M  END
> <standard_type>
pIC50

> <# Confs.>
25

> <canonical_smiles>
ClC(N=C1CCCC)=C(CC(OC)=O)N1CC2=CC=C(NC(C3=CC=CC=C3C(O)=O)=O)C=C2

> <standard_relation>
=

> <Publication_ID>
nan

> <predicted_activity_value>
5.468521082957745

> <actual_activity_value>
6.853871964321762

> <Compound>
9

> <standard_units>
nM

> hash
16389122266415346093

$$$$
9_
XXILIB    08252103503D 0   0.00000     0.00000

 34 36  0     1  0            999 V2000
    5.0080   -1.4815   -0.1021 Cl  0  0  0  0  0  1           0  0  0
    0.3717    0.1347    9.8366 O   0  0  0  0  0  2           0  0  0
    1.2658   -2.3011   -2.4169 O   0  0  0  0  0  2           0  0  0
   -0.7833   -1.5797    6.3267 O   0  0  0  0  0  2           0  0  0
    1.8058   -4.3462   -1.5016 O   0  0  0  0  0  2           0  0  0
    0.0392    0.7791    7.6756 O   0  0  0  0  0  2           0  0  0
    1.4519    0.0000   -0.0000 N   0  0  0  0  0  3           0  0  0
    3.5357    0.7699   -0.0300 N   0  0  0  0  0  3           0  0  0
   -2.1254    0.0120    5.3110 N   0  0  0  0  0  3           0  0  0
    3.5498   -0.5999   -0.0532 C   0  0  0  0  0  4           0  0  0
    2.2647    1.1169    0.0000 C   0  0  0  0  0  4           0  0  0
    2.2666   -1.1149   -0.0368 C   0  0  0  0  0  4           0  0  0
   -1.5762   -0.0184    4.0146 C   0  0  0  0  0  4           0  0  0
   -1.7677   -0.1334    8.8189 C   0  0  0  0  0  4           0  0  0
   -2.4224   -0.5618    7.6511 C   0  0  0  0  0  4           0  0  0
   -0.5415    0.0000    1.3968 C   0  0  0  0  0  4           0  0  0
   -0.5145   -0.8615    3.6712 C   0  0  0  0  0  4           0  0  0
   -2.1218    0.8297    3.0457 C   0  0  0  0  0  4           0  0  0
   -2.4697   -0.0443   10.0277 C   0  0  0  0  0  4           0  0  0
   -3.7883   -0.8760    7.7099 C   0  0  0  0  0  4           0  0  0
   -0.0042   -0.8528    2.3700 C   0  0  0  0  0  4           0  0  0
   -1.6092    0.8363    1.7462 C   0  0  0  0  0  4           0  0  0
   -3.8266   -0.3614   10.0722 C   0  0  0  0  0  4           0  0  0
   -4.4849   -0.7720    8.9154 C   0  0  0  0  0  4           0  0  0
   -0.3497    0.2617    8.8619 C   0  0  0  0  0  4           0  0  0
    1.5787   -2.9999   -1.4621 C   0  0  0  0  0  4           0  0  0
   -1.6993   -0.7613    6.3724 C   0  0  0  0  0  4           0  0  0
    1.6560   -4.9594   -2.7865 C   0  0  0  0  0  4           0  0  0
    0.0000    0.0000    0.0000 C   0  0  0  0  0  4           0  0  0
    1.7724    2.5193    0.0302 C   0  0  0  0  0  4           0  0  0
    1.7845   -2.5190   -0.0479 C   0  0  0  0  0  4           0  0  0
    2.5419    3.3820    1.0256 C   0  0  0  0  0  4           0  0  0
    2.4695    2.8997    2.4751 C   0  0  0  0  0  4           0  0  0
    3.2488    3.7857    3.4357 C   0  0  0  0  0  4           0  0  0
  1 10  1  0     0  0
  2 25  2  0     0  0
  3 26  2  0     0  0
  4 27  2  0     0  0
  5 26  1  0     0  0
  5 28  1  0     0  0
  6 25  1  0     0  0
  7 11  1  0     0  0
  7 12  1  0     0  0
  7 29  1  0     0  0
  8 10  1  0     0  0
  8 11  2  0     0  0
  9 13  1  0     0  0
  9 27  1  0     0  0
 10 12  2  0     0  0
 11 30  1  0     0  0
 12 31  1  0     0  0
 13 17  2  0     0  0
 13 18  1  0     0  0
 14 15  1  0     0  0
 14 19  2  0     0  0
 14 25  1  0     0  0
 15 20  2  0     0  0
 15 27  1  0     0  0
 16 21  2  0     0  0
 16 22  1  0     0  0
 16 29  1  0     0  0
 17 21  1  0     0  0
 18 22  2  0     0  0
 19 23  1  0     0  0
 20 24  1  0     0  0
 23 24  2  0     0  0
 26 31  1  0     0  0
 30 32  1  0     0  0
 32 33  1  0     0  0
 33 34  1  0     0  0
M  END
> <standard_type>
pIC50

> <# Confs.>
25

> <canonical_smiles>
ClC(N=C1CCCC)=C(CC(OC)=O)N1CC2=CC=C(NC(C3=CC=CC=C3C(O)=O)=O)C=C2

> <standard_relation>
=

> <Publication_ID>
nan

> <predicted_activity_value>
5.468521082957745

> <actual_activity_value>
6.853871964321762

> <Compound>
9

> <standard_units>
nM

> hash
16389122266415346093

$$$$
9_
XXILIB    08252103503D 0   0.00000     0.00000

 34 36  0     1  0            999 V2000
    5.0080   -1.4815   -0.1021 Cl  0  0  0  0  0  1           0  0  0
   -3.1411   -3.9022    8.4747 O   0  0  0  0  0  2           0  0  0
    1.2658   -2.3011   -2.4169 O   0  0  0  0  0  2           0  0  0
   -3.7075   -1.5566    5.1930 O   0  0  0  0  0  2           0  0  0
    1.8058   -4.3462   -1.5016 O   0  0  0  0  0  2           0  0  0
   -1.8554   -2.8111    6.9411 O   0  0  0  0  0  2           0  0  0
    1.4519    0.0000   -0.0000 N   0  0  0  0  0  3           0  0  0
    3.5357    0.7699   -0.0300 N   0  0  0  0  0  3           0  0  0
   -2.0565    0.0619    5.3377 N   0  0  0  0  0  3           0  0  0
    3.5498   -0.5999   -0.0532 C   0  0  0  0  0  4           0  0  0
    2.2647    1.1169    0.0000 C   0  0  0  0  0  4           0  0  0
    2.2666   -1.1149   -0.0368 C   0  0  0  0  0  4           0  0  0
   -1.5761    0.0185    4.0147 C   0  0  0  0  0  4           0  0  0
   -3.3276   -1.5396    8.2141 C   0  0  0  0  0  4           0  0  0
   -3.4190   -0.5071    7.2647 C   0  0  0  0  0  4           0  0  0
   -0.5415   -0.0000    1.3968 C   0  0  0  0  0  4           0  0  0
   -2.1078   -0.8473    3.0535 C   0  0  0  0  0  4           0  0  0
   -0.5301    0.8773    3.6628 C   0  0  0  0  0  4           0  0  0
   -3.7437   -1.3220    9.5338 C   0  0  0  0  0  4           0  0  0
   -3.9102    0.7452    7.6627 C   0  0  0  0  0  4           0  0  0
   -1.5944   -0.8528    1.7534 C   0  0  0  0  0  4           0  0  0
   -0.0190    0.8692    2.3627 C   0  0  0  0  0  4           0  0  0
   -4.2316   -0.0730    9.9152 C   0  0  0  0  0  4           0  0  0
   -4.3106    0.9590    8.9830 C   0  0  0  0  0  4           0  0  0
   -2.7884   -2.8773    7.9165 C   0  0  0  0  0  4           0  0  0
    1.5787   -2.9999   -1.4621 C   0  0  0  0  0  4           0  0  0
   -3.0796   -0.7191    5.8372 C   0  0  0  0  0  4           0  0  0
    1.6560   -4.9594   -2.7865 C   0  0  0  0  0  4           0  0  0
    0.0000    0.0000    0.0000 C   0  0  0  0  0  4           0  0  0
    1.7724    2.5193    0.0302 C   0  0  0  0  0  4           0  0  0
    1.7845   -2.5190   -0.0479 C   0  0  0  0  0  4           0  0  0
    2.5020    3.4110   -0.9696 C   0  0  0  0  0  4           0  0  0
    2.0357    4.8675   -0.9821 C   0  0  0  0  0  4           0  0  0
    2.7868    5.7231   -1.9914 C   0  0  0  0  0  4           0  0  0
  1 10  1  0     0  0
  2 25  2  0     0  0
  3 26  2  0     0  0
  4 27  2  0     0  0
  5 26  1  0     0  0
  5 28  1  0     0  0
  6 25  1  0     0  0
  7 11  1  0     0  0
  7 12  1  0     0  0
  7 29  1  0     0  0
  8 10  1  0     0  0
  8 11  2  0     0  0
  9 13  1  0     0  0
  9 27  1  0     0  0
 10 12  2  0     0  0
 11 30  1  0     0  0
 12 31  1  0     0  0
 13 17  2  0     0  0
 13 18  1  0     0  0
 14 15  1  0     0  0
 14 19  2  0     0  0
 14 25  1  0     0  0
 15 20  2  0     0  0
 15 27  1  0     0  0
 16 21  2  0     0  0
 16 22  1  0     0  0
 16 29  1  0     0  0
 17 21  1  0     0  0
 18 22  2  0     0  0
 19 23  1  0     0  0
 20 24  1  0     0  0
 23 24  2  0     0  0
 26 31  1  0     0  0
 30 32  1  0     0  0
 32 33  1  0     0  0
 33 34  1  0     0  0
M  END
> <standard_type>
pIC50

> <# Confs.>
25

> <canonical_smiles>
ClC(N=C1CCCC)=C(CC(OC)=O)N1CC2=CC=C(NC(C3=CC=CC=C3C(O)=O)=O)C=C2

> <standard_relation>
=

> <Publication_ID>
nan

> <predicted_activity_value>
5.468521082957745

> <actual_activity_value>
6.853871964321762

> <Compound>
9

> <standard_units>
nM

> hash
16389122266415346093

$$$$
9_
XXILIB    08252103503D 0   0.00000     0.00000

 34 36  0     1  0            999 V2000
    5.0080    1.4815    0.1021 Cl  0  0  0  0  0  1           0  0  0
    0.3717    0.1347    9.8366 O   0  0  0  0  0  2           0  0  0
    1.3773    2.3771   -2.3484 O   0  0  0  0  0  2           0  0  0
   -0.7833   -1.5797    6.3267 O   0  0  0  0  0  2           0  0  0
    1.8605    4.3935   -1.3423 O   0  0  0  0  0  2           0  0  0
    0.0392    0.7791    7.6756 O   0  0  0  0  0  2           0  0  0
    1.4519    0.0000    0.0000 N   0  0  0  0  0  3           0  0  0
    3.5357   -0.7699    0.0300 N   0  0  0  0  0  3           0  0  0
   -2.1254    0.0120    5.3110 N   0  0  0  0  0  3           0  0  0
    3.5498    0.5999    0.0532 C   0  0  0  0  0  4           0  0  0
    2.2647   -1.1169    0.0000 C   0  0  0  0  0  4           0  0  0
    2.2666    1.1149    0.0368 C   0  0  0  0  0  4           0  0  0
   -1.5762   -0.0184    4.0146 C   0  0  0  0  0  4           0  0  0
   -1.7677   -0.1334    8.8189 C   0  0  0  0  0  4           0  0  0
   -2.4224   -0.5618    7.6511 C   0  0  0  0  0  4           0  0  0
   -0.5415    0.0000    1.3968 C   0  0  0  0  0  4           0  0  0
   -0.5145   -0.8615    3.6712 C   0  0  0  0  0  4           0  0  0
   -2.1218    0.8297    3.0457 C   0  0  0  0  0  4           0  0  0
   -2.4697   -0.0443   10.0277 C   0  0  0  0  0  4           0  0  0
   -3.7883   -0.8760    7.7099 C   0  0  0  0  0  4           0  0  0
   -0.0042   -0.8528    2.3700 C   0  0  0  0  0  4           0  0  0
   -1.6092    0.8363    1.7462 C   0  0  0  0  0  4           0  0  0
   -3.8266   -0.3614   10.0722 C   0  0  0  0  0  4           0  0  0
   -4.4849   -0.7720    8.9154 C   0  0  0  0  0  4           0  0  0
   -0.3497    0.2617    8.8619 C   0  0  0  0  0  4           0  0  0
    1.6447    3.0448   -1.3583 C   0  0  0  0  0  4           0  0  0
   -1.6993   -0.7613    6.3724 C   0  0  0  0  0  4           0  0  0
    1.7570    5.0497   -2.6104 C   0  0  0  0  0  4           0  0  0
    0.0000    0.0000    0.0000 C   0  0  0  0  0  4           0  0  0
    1.7724   -2.5193   -0.0302 C   0  0  0  0  0  4           0  0  0
    1.7845    2.5190    0.0479 C   0  0  0  0  0  4           0  0  0
    1.6088   -3.0452   -1.4528 C   0  0  0  0  0  4           0  0  0
    1.1039   -4.4859   -1.5447 C   0  0  0  0  0  4           0  0  0
    0.9542   -4.9727   -2.9785 C   0  0  0  0  0  4           0  0  0
  1 10  1  0     0  0
  2 25  2  0     0  0
  3 26  2  0     0  0
  4 27  2  0     0  0
  5 26  1  0     0  0
  5 28  1  0     0  0
  6 25  1  0     0  0
  7 11  1  0     0  0
  7 12  1  0     0  0
  7 29  1  0     0  0
  8 10  1  0     0  0
  8 11  2  0     0  0
  9 13  1  0     0  0
  9 27  1  0     0  0
 10 12  2  0     0  0
 11 30  1  0     0  0
 12 31  1  0     0  0
 13 17  2  0     0  0
 13 18  1  0     0  0
 14 15  1  0     0  0
 14 19  2  0     0  0
 14 25  1  0     0  0
 15 20  2  0     0  0
 15 27  1  0     0  0
 16 21  2  0     0  0
 16 22  1  0     0  0
 16 29  1  0     0  0
 17 21  1  0     0  0
 18 22  2  0     0  0
 19 23  1  0     0  0
 20 24  1  0     0  0
 23 24  2  0     0  0
 26 31  1  0     0  0
 30 32  1  0     0  0
 32 33  1  0     0  0
 33 34  1  0     0  0
M  END
> <standard_type>
pIC50

> <# Confs.>
25

> <canonical_smiles>
ClC(N=C1CCCC)=C(CC(OC)=O)N1CC2=CC=C(NC(C3=CC=CC=C3C(O)=O)=O)C=C2

> <standard_relation>
=

> <Publication_ID>
nan

> <predicted_activity_value>
5.468521082957745

> <actual_activity_value>
6.853871964321762

> <Compound>
9

> <standard_units>
nM

> hash
16389122266415346093

$$$$
9_
XXILIB    08252103503D 0   0.00000     0.00000

 34 36  0     1  0            999 V2000
    5.0080    1.4815    0.1021 Cl  0  0  0  0  0  1           0  0  0
    0.3717    0.1347    9.8366 O   0  0  0  0  0  2           0  0  0
    1.3773    2.3771   -2.3484 O   0  0  0  0  0  2           0  0  0
   -0.7833   -1.5797    6.3267 O   0  0  0  0  0  2           0  0  0
    1.8605    4.3935   -1.3423 O   0  0  0  0  0  2           0  0  0
    0.0392    0.7791    7.6756 O   0  0  0  0  0  2           0  0  0
    1.4519    0.0000    0.0000 N   0  0  0  0  0  3           0  0  0
    3.5357   -0.7699    0.0300 N   0  0  0  0  0  3           0  0  0
   -2.1254    0.0120    5.3110 N   0  0  0  0  0  3           0  0  0
    3.5498    0.5999    0.0532 C   0  0  0  0  0  4           0  0  0
    2.2647   -1.1169    0.0000 C   0  0  0  0  0  4           0  0  0
    2.2666    1.1149    0.0368 C   0  0  0  0  0  4           0  0  0
   -1.5762   -0.0184    4.0146 C   0  0  0  0  0  4           0  0  0
   -1.7677   -0.1334    8.8189 C   0  0  0  0  0  4           0  0  0
   -2.4224   -0.5618    7.6511 C   0  0  0  0  0  4           0  0  0
   -0.5415    0.0000    1.3968 C   0  0  0  0  0  4           0  0  0
   -0.5145   -0.8615    3.6712 C   0  0  0  0  0  4           0  0  0
   -2.1218    0.8297    3.0457 C   0  0  0  0  0  4           0  0  0
   -2.4697   -0.0443   10.0277 C   0  0  0  0  0  4           0  0  0
   -3.7883   -0.8760    7.7099 C   0  0  0  0  0  4           0  0  0
   -0.0042   -0.8528    2.3700 C   0  0  0  0  0  4           0  0  0
   -1.6092    0.8363    1.7462 C   0  0  0  0  0  4           0  0  0
   -3.8266   -0.3614   10.0722 C   0  0  0  0  0  4           0  0  0
   -4.4849   -0.7720    8.9154 C   0  0  0  0  0  4           0  0  0
   -0.3497    0.2617    8.8619 C   0  0  0  0  0  4           0  0  0
    1.6447    3.0448   -1.3583 C   0  0  0  0  0  4           0  0  0
   -1.6993   -0.7613    6.3724 C   0  0  0  0  0  4           0  0  0
    1.7570    5.0497   -2.6104 C   0  0  0  0  0  4           0  0  0
    0.0000    0.0000    0.0000 C   0  0  0  0  0  4           0  0  0
    1.7724   -2.5193   -0.0302 C   0  0  0  0  0  4           0  0  0
    1.7845    2.5190    0.0479 C   0  0  0  0  0  4           0  0  0
    2.5419   -3.3820   -1.0256 C   0  0  0  0  0  4           0  0  0
    2.4695   -2.8997   -2.4751 C   0  0  0  0  0  4           0  0  0
    3.2488   -3.7857   -3.4357 C   0  0  0  0  0  4           0  0  0
  1 10  1  0     0  0
  2 25  2  0     0  0
  3 26  2  0     0  0
  4 27  2  0     0  0
  5 26  1  0     0  0
  5 28  1  0     0  0
  6 25  1  0     0  0
  7 11  1  0     0  0
  7 12  1  0     0  0
  7 29  1  0     0  0
  8 10  1  0     0  0
  8 11  2  0     0  0
  9 13  1  0     0  0
  9 27  1  0     0  0
 10 12  2  0     0  0
 11 30  1  0     0  0
 12 31  1  0     0  0
 13 17  2  0     0  0
 13 18  1  0     0  0
 14 15  1  0     0  0
 14 19  2  0     0  0
 14 25  1  0     0  0
 15 20  2  0     0  0
 15 27  1  0     0  0
 16 21  2  0     0  0
 16 22  1  0     0  0
 16 29  1  0     0  0
 17 21  1  0     0  0
 18 22  2  0     0  0
 19 23  1  0     0  0
 20 24  1  0     0  0
 23 24  2  0     0  0
 26 31  1  0     0  0
 30 32  1  0     0  0
 32 33  1  0     0  0
 33 34  1  0     0  0
M  END
> <standard_type>
pIC50

> <# Confs.>
25

> <canonical_smiles>
ClC(N=C1CCCC)=C(CC(OC)=O)N1CC2=CC=C(NC(C3=CC=CC=C3C(O)=O)=O)C=C2

> <standard_relation>
=

> <Publication_ID>
nan

> <predicted_activity_value>
5.468521082957745

> <actual_activity_value>
6.853871964321762

> <Compound>
9

> <standard_units>
nM

> hash
16389122266415346093

$$$$
9_
XXILIB    08252103503D 0   0.00000     0.00000

 34 36  0     1  0            999 V2000
    5.0080   -1.4815   -0.1021 Cl  0  0  0  0  0  1           0  0  0
   -3.1411   -3.9022    8.4747 O   0  0  0  0  0  2           0  0  0
    1.2658   -2.3011   -2.4169 O   0  0  0  0  0  2           0  0  0
   -3.7075   -1.5566    5.1930 O   0  0  0  0  0  2           0  0  0
    1.8058   -4.3462   -1.5016 O   0  0  0  0  0  2           0  0  0
   -1.8554   -2.8111    6.9411 O   0  0  0  0  0  2           0  0  0
    1.4519    0.0000   -0.0000 N   0  0  0  0  0  3           0  0  0
    3.5357    0.7699   -0.0300 N   0  0  0  0  0  3           0  0  0
   -2.0565    0.0619    5.3377 N   0  0  0  0  0  3           0  0  0
    3.5498   -0.5999   -0.0532 C   0  0  0  0  0  4           0  0  0
    2.2647    1.1169    0.0000 C   0  0  0  0  0  4           0  0  0
    2.2666   -1.1149   -0.0368 C   0  0  0  0  0  4           0  0  0
   -1.5761    0.0185    4.0147 C   0  0  0  0  0  4           0  0  0
   -3.3276   -1.5396    8.2141 C   0  0  0  0  0  4           0  0  0
   -3.4190   -0.5071    7.2647 C   0  0  0  0  0  4           0  0  0
   -0.5415   -0.0000    1.3968 C   0  0  0  0  0  4           0  0  0
   -2.1078   -0.8473    3.0535 C   0  0  0  0  0  4           0  0  0
   -0.5301    0.8773    3.6628 C   0  0  0  0  0  4           0  0  0
   -3.7437   -1.3220    9.5338 C   0  0  0  0  0  4           0  0  0
   -3.9102    0.7452    7.6627 C   0  0  0  0  0  4           0  0  0
   -1.5944   -0.8528    1.7534 C   0  0  0  0  0  4           0  0  0
   -0.0190    0.8692    2.3627 C   0  0  0  0  0  4           0  0  0
   -4.2316   -0.0730    9.9152 C   0  0  0  0  0  4           0  0  0
   -4.3106    0.9590    8.9830 C   0  0  0  0  0  4           0  0  0
   -2.7884   -2.8773    7.9165 C   0  0  0  0  0  4           0  0  0
    1.5787   -2.9999   -1.4621 C   0  0  0  0  0  4           0  0  0
   -3.0796   -0.7191    5.8372 C   0  0  0  0  0  4           0  0  0
    1.6560   -4.9594   -2.7865 C   0  0  0  0  0  4           0  0  0
    0.0000    0.0000    0.0000 C   0  0  0  0  0  4           0  0  0
    1.7724    2.5193    0.0302 C   0  0  0  0  0  4           0  0  0
    1.7845   -2.5190   -0.0479 C   0  0  0  0  0  4           0  0  0
    2.5419    3.3820    1.0256 C   0  0  0  0  0  4           0  0  0
    2.0773    4.8372    1.0991 C   0  0  0  0  0  4           0  0  0
    2.8686    5.6636    2.1020 C   0  0  0  0  0  4           0  0  0
  1 10  1  0     0  0
  2 25  2  0     0  0
  3 26  2  0     0  0
  4 27  2  0     0  0
  5 26  1  0     0  0
  5 28  1  0     0  0
  6 25  1  0     0  0
  7 11  1  0     0  0
  7 12  1  0     0  0
  7 29  1  0     0  0
  8 10  1  0     0  0
  8 11  2  0     0  0
  9 13  1  0     0  0
  9 27  1  0     0  0
 10 12  2  0     0  0
 11 30  1  0     0  0
 12 31  1  0     0  0
 13 17  2  0     0  0
 13 18  1  0     0  0
 14 15  1  0     0  0
 14 19  2  0     0  0
 14 25  1  0     0  0
 15 20  2  0     0  0
 15 27  1  0     0  0
 16 21  2  0     0  0
 16 22  1  0     0  0
 16 29  1  0     0  0
 17 21  1  0     0  0
 18 22  2  0     0  0
 19 23  1  0     0  0
 20 24  1  0     0  0
 23 24  2  0     0  0
 26 31  1  0     0  0
 30 32  1  0     0  0
 32 33  1  0     0  0
 33 34  1  0     0  0
M  END
> <standard_type>
pIC50

> <# Confs.>
25

> <canonical_smiles>
ClC(N=C1CCCC)=C(CC(OC)=O)N1CC2=CC=C(NC(C3=CC=CC=C3C(O)=O)=O)C=C2

> <standard_relation>
=

> <Publication_ID>
nan

> <predicted_activity_value>
5.468521082957745

> <actual_activity_value>
6.853871964321762

> <Compound>
9

> <standard_units>
nM

> hash
16389122266415346093

$$$$
9_
XXILIB    08252103503D 0   0.00000     0.00000

 34 36  0     1  0            999 V2000
    5.0080   -1.4815   -0.1021 Cl  0  0  0  0  0  1           0  0  0
    0.3717    0.1347    9.8366 O   0  0  0  0  0  2           0  0  0
    1.2658   -2.3011   -2.4169 O   0  0  0  0  0  2           0  0  0
   -0.7833   -1.5797    6.3267 O   0  0  0  0  0  2           0  0  0
    1.8058   -4.3462   -1.5016 O   0  0  0  0  0  2           0  0  0
    0.0392    0.7791    7.6756 O   0  0  0  0  0  2           0  0  0
    1.4519    0.0000   -0.0000 N   0  0  0  0  0  3           0  0  0
    3.5357    0.7699   -0.0300 N   0  0  0  0  0  3           0  0  0
   -2.1254    0.0120    5.3110 N   0  0  0  0  0  3           0  0  0
    3.5498   -0.5999   -0.0532 C   0  0  0  0  0  4           0  0  0
    2.2647    1.1169    0.0000 C   0  0  0  0  0  4           0  0  0
    2.2666   -1.1149   -0.0368 C   0  0  0  0  0  4           0  0  0
   -1.5762   -0.0184    4.0146 C   0  0  0  0  0  4           0  0  0
   -1.7677   -0.1334    8.8189 C   0  0  0  0  0  4           0  0  0
   -2.4224   -0.5618    7.6511 C   0  0  0  0  0  4           0  0  0
   -0.5415    0.0000    1.3968 C   0  0  0  0  0  4           0  0  0
   -0.5145   -0.8615    3.6712 C   0  0  0  0  0  4           0  0  0
   -2.1218    0.8297    3.0457 C   0  0  0  0  0  4           0  0  0
   -2.4697   -0.0443   10.0277 C   0  0  0  0  0  4           0  0  0
   -3.7883   -0.8760    7.7099 C   0  0  0  0  0  4           0  0  0
   -0.0042   -0.8528    2.3700 C   0  0  0  0  0  4           0  0  0
   -1.6092    0.8363    1.7462 C   0  0  0  0  0  4           0  0  0
   -3.8266   -0.3614   10.0722 C   0  0  0  0  0  4           0  0  0
   -4.4849   -0.7720    8.9154 C   0  0  0  0  0  4           0  0  0
   -0.3497    0.2617    8.8619 C   0  0  0  0  0  4           0  0  0
    1.5787   -2.9999   -1.4621 C   0  0  0  0  0  4           0  0  0
   -1.6993   -0.7613    6.3724 C   0  0  0  0  0  4           0  0  0
    1.6560   -4.9594   -2.7865 C   0  0  0  0  0  4           0  0  0
    0.0000    0.0000    0.0000 C   0  0  0  0  0  4           0  0  0
    1.7724    2.5193    0.0302 C   0  0  0  0  0  4           0  0  0
    1.7845   -2.5190   -0.0479 C   0  0  0  0  0  4           0  0  0
    2.9119    3.5335    0.0222 C   0  0  0  0  0  4           0  0  0
    2.4632    4.9952    0.0524 C   0  0  0  0  0  4           0  0  0
    3.6277    5.9745    0.0434 C   0  0  0  0  0  4           0  0  0
  1 10  1  0     0  0
  2 25  2  0     0  0
  3 26  2  0     0  0
  4 27  2  0     0  0
  5 26  1  0     0  0
  5 28  1  0     0  0
  6 25  1  0     0  0
  7 11  1  0     0  0
  7 12  1  0     0  0
  7 29  1  0     0  0
  8 10  1  0     0  0
  8 11  2  0     0  0
  9 13  1  0     0  0
  9 27  1  0     0  0
 10 12  2  0     0  0
 11 30  1  0     0  0
 12 31  1  0     0  0
 13 17  2  0     0  0
 13 18  1  0     0  0
 14 15  1  0     0  0
 14 19  2  0     0  0
 14 25  1  0     0  0
 15 20  2  0     0  0
 15 27  1  0     0  0
 16 21  2  0     0  0
 16 22  1  0     0  0
 16 29  1  0     0  0
 17 21  1  0     0  0
 18 22  2  0     0  0
 19 23  1  0     0  0
 20 24  1  0     0  0
 23 24  2  0     0  0
 26 31  1  0     0  0
 30 32  1  0     0  0
 32 33  1  0     0  0
 33 34  1  0     0  0
M  END
> <standard_type>
pIC50

> <# Confs.>
25

> <canonical_smiles>
ClC(N=C1CCCC)=C(CC(OC)=O)N1CC2=CC=C(NC(C3=CC=CC=C3C(O)=O)=O)C=C2

> <standard_relation>
=

> <Publication_ID>
nan

> <predicted_activity_value>
5.468521082957745

> <actual_activity_value>
6.853871964321762

> <Compound>
9

> <standard_units>
nM

> hash
16389122266415346093

$$$$
9_
XXILIB    08252103503D 0   0.00000     0.00000

 34 36  0     1  0            999 V2000
    5.0080   -1.4815   -0.1021 Cl  0  0  0  0  0  1           0  0  0
   -1.6552   -3.0911    7.5209 O   0  0  0  0  0  2           0  0  0
    1.2658   -2.3011   -2.4169 O   0  0  0  0  0  2           0  0  0
   -3.7075   -1.5566    5.1930 O   0  0  0  0  0  2           0  0  0
    1.8058   -4.3462   -1.5016 O   0  0  0  0  0  2           0  0  0
   -3.7192   -3.8301    8.1448 O   0  0  0  0  0  2           0  0  0
    1.4519    0.0000   -0.0000 N   0  0  0  0  0  3           0  0  0
    3.5357    0.7699   -0.0300 N   0  0  0  0  0  3           0  0  0
   -2.0565    0.0619    5.3377 N   0  0  0  0  0  3           0  0  0
    3.5498   -0.5999   -0.0532 C   0  0  0  0  0  4           0  0  0
    2.2647    1.1169    0.0000 C   0  0  0  0  0  4           0  0  0
    2.2666   -1.1149   -0.0368 C   0  0  0  0  0  4           0  0  0
   -1.5761    0.0185    4.0147 C   0  0  0  0  0  4           0  0  0
   -3.3276   -1.5396    8.2141 C   0  0  0  0  0  4           0  0  0
   -3.4190   -0.5071    7.2647 C   0  0  0  0  0  4           0  0  0
   -0.5415   -0.0000    1.3968 C   0  0  0  0  0  4           0  0  0
   -2.1078   -0.8473    3.0535 C   0  0  0  0  0  4           0  0  0
   -0.5301    0.8773    3.6628 C   0  0  0  0  0  4           0  0  0
   -3.7437   -1.3220    9.5338 C   0  0  0  0  0  4           0  0  0
   -3.9102    0.7452    7.6627 C   0  0  0  0  0  4           0  0  0
   -1.5944   -0.8528    1.7534 C   0  0  0  0  0  4           0  0  0
   -0.0190    0.8692    2.3627 C   0  0  0  0  0  4           0  0  0
   -4.2316   -0.0730    9.9152 C   0  0  0  0  0  4           0  0  0
   -4.3106    0.9590    8.9830 C   0  0  0  0  0  4           0  0  0
   -2.7884   -2.8773    7.9165 C   0  0  0  0  0  4           0  0  0
    1.5787   -2.9999   -1.4621 C   0  0  0  0  0  4           0  0  0
   -3.0796   -0.7191    5.8372 C   0  0  0  0  0  4           0  0  0
    1.6560   -4.9594   -2.7865 C   0  0  0  0  0  4           0  0  0
    0.0000    0.0000    0.0000 C   0  0  0  0  0  4           0  0  0
    1.7724    2.5193    0.0302 C   0  0  0  0  0  4           0  0  0
    1.7845   -2.5190   -0.0479 C   0  0  0  0  0  4           0  0  0
    2.5020    3.4110   -0.9696 C   0  0  0  0  0  4           0  0  0
    2.3715    2.9710   -2.4284 C   0  0  0  0  0  4           0  0  0
    3.1123    3.8850   -3.3932 C   0  0  0  0  0  4           0  0  0
  1 10  1  0     0  0
  2 25  2  0     0  0
  3 26  2  0     0  0
  4 27  2  0     0  0
  5 26  1  0     0  0
  5 28  1  0     0  0
  6 25  1  0     0  0
  7 11  1  0     0  0
  7 12  1  0     0  0
  7 29  1  0     0  0
  8 10  1  0     0  0
  8 11  2  0     0  0
  9 13  1  0     0  0
  9 27  1  0     0  0
 10 12  2  0     0  0
 11 30  1  0     0  0
 12 31  1  0     0  0
 13 17  2  0     0  0
 13 18  1  0     0  0
 14 15  1  0     0  0
 14 19  2  0     0  0
 14 25  1  0     0  0
 15 20  2  0     0  0
 15 27  1  0     0  0
 16 21  2  0     0  0
 16 22  1  0     0  0
 16 29  1  0     0  0
 17 21  1  0     0  0
 18 22  2  0     0  0
 19 23  1  0     0  0
 20 24  1  0     0  0
 23 24  2  0     0  0
 26 31  1  0     0  0
 30 32  1  0     0  0
 32 33  1  0     0  0
 33 34  1  0     0  0
M  END
> <standard_type>
pIC50

> <# Confs.>
25

> <canonical_smiles>
ClC(N=C1CCCC)=C(CC(OC)=O)N1CC2=CC=C(NC(C3=CC=CC=C3C(O)=O)=O)C=C2

> <standard_relation>
=

> <Publication_ID>
nan

> <predicted_activity_value>
5.468521082957745

> <actual_activity_value>
6.853871964321762

> <Compound>
9

> <standard_units>
nM

> hash
16389122266415346093

$$$$
9_
XXILIB    08252103503D 0   0.00000     0.00000

 34 36  0     1  0            999 V2000
    5.0080    1.4815    0.1021 Cl  0  0  0  0  0  1           0  0  0
    0.3717    0.1347    9.8366 O   0  0  0  0  0  2           0  0  0
    1.3773    2.3771   -2.3484 O   0  0  0  0  0  2           0  0  0
   -0.7833   -1.5797    6.3267 O   0  0  0  0  0  2           0  0  0
    1.8605    4.3935   -1.3423 O   0  0  0  0  0  2           0  0  0
    0.0392    0.7791    7.6756 O   0  0  0  0  0  2           0  0  0
    1.4519    0.0000    0.0000 N   0  0  0  0  0  3           0  0  0
    3.5357   -0.7699    0.0300 N   0  0  0  0  0  3           0  0  0
   -2.1254    0.0120    5.3110 N   0  0  0  0  0  3           0  0  0
    3.5498    0.5999    0.0532 C   0  0  0  0  0  4           0  0  0
    2.2647   -1.1169    0.0000 C   0  0  0  0  0  4           0  0  0
    2.2666    1.1149    0.0368 C   0  0  0  0  0  4           0  0  0
   -1.5762   -0.0184    4.0146 C   0  0  0  0  0  4           0  0  0
   -1.7677   -0.1334    8.8189 C   0  0  0  0  0  4           0  0  0
   -2.4224   -0.5618    7.6511 C   0  0  0  0  0  4           0  0  0
   -0.5415    0.0000    1.3968 C   0  0  0  0  0  4           0  0  0
   -0.5145   -0.8615    3.6712 C   0  0  0  0  0  4           0  0  0
   -2.1218    0.8297    3.0457 C   0  0  0  0  0  4           0  0  0
   -2.4697   -0.0443   10.0277 C   0  0  0  0  0  4           0  0  0
   -3.7883   -0.8760    7.7099 C   0  0  0  0  0  4           0  0  0
   -0.0042   -0.8528    2.3700 C   0  0  0  0  0  4           0  0  0
   -1.6092    0.8363    1.7462 C   0  0  0  0  0  4           0  0  0
   -3.8266   -0.3614   10.0722 C   0  0  0  0  0  4           0  0  0
   -4.4849   -0.7720    8.9154 C   0  0  0  0  0  4           0  0  0
   -0.3497    0.2617    8.8619 C   0  0  0  0  0  4           0  0  0
    1.6447    3.0448   -1.3583 C   0  0  0  0  0  4           0  0  0
   -1.6993   -0.7613    6.3724 C   0  0  0  0  0  4           0  0  0
    1.7570    5.0497   -2.6104 C   0  0  0  0  0  4           0  0  0
    0.0000    0.0000    0.0000 C   0  0  0  0  0  4           0  0  0
    1.7724   -2.5193   -0.0302 C   0  0  0  0  0  4           0  0  0
    1.7845    2.5190    0.0479 C   0  0  0  0  0  4           0  0  0
    2.5020   -3.4110    0.9696 C   0  0  0  0  0  4           0  0  0
    2.0357   -4.8675    0.9821 C   0  0  0  0  0  4           0  0  0
    2.7868   -5.7231    1.9914 C   0  0  0  0  0  4           0  0  0
  1 10  1  0     0  0
  2 25  2  0     0  0
  3 26  2  0     0  0
  4 27  2  0     0  0
  5 26  1  0     0  0
  5 28  1  0     0  0
  6 25  1  0     0  0
  7 11  1  0     0  0
  7 12  1  0     0  0
  7 29  1  0     0  0
  8 10  1  0     0  0
  8 11  2  0     0  0
  9 13  1  0     0  0
  9 27  1  0     0  0
 10 12  2  0     0  0
 11 30  1  0     0  0
 12 31  1  0     0  0
 13 17  2  0     0  0
 13 18  1  0     0  0
 14 15  1  0     0  0
 14 19  2  0     0  0
 14 25  1  0     0  0
 15 20  2  0     0  0
 15 27  1  0     0  0
 16 21  2  0     0  0
 16 22  1  0     0  0
 16 29  1  0     0  0
 17 21  1  0     0  0
 18 22  2  0     0  0
 19 23  1  0     0  0
 20 24  1  0     0  0
 23 24  2  0     0  0
 26 31  1  0     0  0
 30 32  1  0     0  0
 32 33  1  0     0  0
 33 34  1  0     0  0
M  END
> <standard_type>
pIC50

> <# Confs.>
25

> <canonical_smiles>
ClC(N=C1CCCC)=C(CC(OC)=O)N1CC2=CC=C(NC(C3=CC=CC=C3C(O)=O)=O)C=C2

> <standard_relation>
=

> <Publication_ID>
nan

> <predicted_activity_value>
5.468521082957745

> <actual_activity_value>
6.853871964321762

> <Compound>
9

> <standard_units>
nM

> hash
16389122266415346093

$$$$
9_
XXILIB    08252103503D 0   0.00000     0.00000

 34 36  0     1  0            999 V2000
    5.0080   -1.4815   -0.1021 Cl  0  0  0  0  0  1           0  0  0
    0.1310    1.1754    8.2134 O   0  0  0  0  0  2           0  0  0
    1.2658   -2.3011   -2.4169 O   0  0  0  0  0  2           0  0  0
   -0.7833   -1.5797    6.3267 O   0  0  0  0  0  2           0  0  0
    1.8058   -4.3462   -1.5016 O   0  0  0  0  0  2           0  0  0
    0.3401   -0.5236    9.7185 O   0  0  0  0  0  2           0  0  0
    1.4519    0.0000   -0.0000 N   0  0  0  0  0  3           0  0  0
    3.5357    0.7699   -0.0300 N   0  0  0  0  0  3           0  0  0
   -2.1254    0.0120    5.3110 N   0  0  0  0  0  3           0  0  0
    3.5498   -0.5999   -0.0532 C   0  0  0  0  0  4           0  0  0
    2.2647    1.1169    0.0000 C   0  0  0  0  0  4           0  0  0
    2.2666   -1.1149   -0.0368 C   0  0  0  0  0  4           0  0  0
   -1.5762   -0.0184    4.0146 C   0  0  0  0  0  4           0  0  0
   -1.7677   -0.1334    8.8189 C   0  0  0  0  0  4           0  0  0
   -2.4224   -0.5618    7.6511 C   0  0  0  0  0  4           0  0  0
   -0.5415    0.0000    1.3968 C   0  0  0  0  0  4           0  0  0
   -0.5145   -0.8615    3.6712 C   0  0  0  0  0  4           0  0  0
   -2.1218    0.8297    3.0457 C   0  0  0  0  0  4           0  0  0
   -2.4697   -0.0443   10.0277 C   0  0  0  0  0  4           0  0  0
   -3.7883   -0.8760    7.7099 C   0  0  0  0  0  4           0  0  0
   -0.0042   -0.8528    2.3700 C   0  0  0  0  0  4           0  0  0
   -1.6092    0.8363    1.7462 C   0  0  0  0  0  4           0  0  0
   -3.8266   -0.3614   10.0722 C   0  0  0  0  0  4           0  0  0
   -4.4849   -0.7720    8.9154 C   0  0  0  0  0  4           0  0  0
   -0.3497    0.2617    8.8619 C   0  0  0  0  0  4           0  0  0
    1.5787   -2.9999   -1.4621 C   0  0  0  0  0  4           0  0  0
   -1.6993   -0.7613    6.3724 C   0  0  0  0  0  4           0  0  0
    1.6560   -4.9594   -2.7865 C   0  0  0  0  0  4           0  0  0
    0.0000    0.0000    0.0000 C   0  0  0  0  0  4           0  0  0
    1.7724    2.5193    0.0302 C   0  0  0  0  0  4           0  0  0
    1.7845   -2.5190   -0.0479 C   0  0  0  0  0  4           0  0  0
    1.5524    3.0862   -1.3688 C   0  0  0  0  0  4           0  0  0
    1.0451    4.5287   -1.3985 C   0  0  0  0  0  4           0  0  0
    0.8385    5.0569   -2.8104 C   0  0  0  0  0  4           0  0  0
  1 10  1  0     0  0
  2 25  2  0     0  0
  3 26  2  0     0  0
  4 27  2  0     0  0
  5 26  1  0     0  0
  5 28  1  0     0  0
  6 25  1  0     0  0
  7 11  1  0     0  0
  7 12  1  0     0  0
  7 29  1  0     0  0
  8 10  1  0     0  0
  8 11  2  0     0  0
  9 13  1  0     0  0
  9 27  1  0     0  0
 10 12  2  0     0  0
 11 30  1  0     0  0
 12 31  1  0     0  0
 13 17  2  0     0  0
 13 18  1  0     0  0
 14 15  1  0     0  0
 14 19  2  0     0  0
 14 25  1  0     0  0
 15 20  2  0     0  0
 15 27  1  0     0  0
 16 21  2  0     0  0
 16 22  1  0     0  0
 16 29  1  0     0  0
 17 21  1  0     0  0
 18 22  2  0     0  0
 19 23  1  0     0  0
 20 24  1  0     0  0
 23 24  2  0     0  0
 26 31  1  0     0  0
 30 32  1  0     0  0
 32 33  1  0     0  0
 33 34  1  0     0  0
M  END
> <standard_type>
pIC50

> <# Confs.>
25

> <canonical_smiles>
ClC(N=C1CCCC)=C(CC(OC)=O)N1CC2=CC=C(NC(C3=CC=CC=C3C(O)=O)=O)C=C2

> <standard_relation>
=

> <Publication_ID>
nan

> <predicted_activity_value>
5.468521082957745

> <actual_activity_value>
6.853871964321762

> <Compound>
9

> <standard_units>
nM

> hash
16389122266415346093

$$$$
9_
XXILIB    08252103503D 0   0.00000     0.00000

 34 36  0     1  0            999 V2000
    5.0080   -1.4815   -0.1021 Cl  0  0  0  0  0  1           0  0  0
   -1.6552   -3.0911    7.5209 O   0  0  0  0  0  2           0  0  0
    1.2658   -2.3011   -2.4169 O   0  0  0  0  0  2           0  0  0
   -3.7075   -1.5566    5.1930 O   0  0  0  0  0  2           0  0  0
    1.8058   -4.3462   -1.5016 O   0  0  0  0  0  2           0  0  0
   -3.7192   -3.8301    8.1448 O   0  0  0  0  0  2           0  0  0
    1.4519    0.0000   -0.0000 N   0  0  0  0  0  3           0  0  0
    3.5357    0.7699   -0.0300 N   0  0  0  0  0  3           0  0  0
   -2.0565    0.0619    5.3377 N   0  0  0  0  0  3           0  0  0
    3.5498   -0.5999   -0.0532 C   0  0  0  0  0  4           0  0  0
    2.2647    1.1169    0.0000 C   0  0  0  0  0  4           0  0  0
    2.2666   -1.1149   -0.0368 C   0  0  0  0  0  4           0  0  0
   -1.5761    0.0185    4.0147 C   0  0  0  0  0  4           0  0  0
   -3.3276   -1.5396    8.2141 C   0  0  0  0  0  4           0  0  0
   -3.4190   -0.5071    7.2647 C   0  0  0  0  0  4           0  0  0
   -0.5415   -0.0000    1.3968 C   0  0  0  0  0  4           0  0  0
   -2.1078   -0.8473    3.0535 C   0  0  0  0  0  4           0  0  0
   -0.5301    0.8773    3.6628 C   0  0  0  0  0  4           0  0  0
   -3.7437   -1.3220    9.5338 C   0  0  0  0  0  4           0  0  0
   -3.9102    0.7452    7.6627 C   0  0  0  0  0  4           0  0  0
   -1.5944   -0.8528    1.7534 C   0  0  0  0  0  4           0  0  0
   -0.0190    0.8692    2.3627 C   0  0  0  0  0  4           0  0  0
   -4.2316   -0.0730    9.9152 C   0  0  0  0  0  4           0  0  0
   -4.3106    0.9590    8.9830 C   0  0  0  0  0  4           0  0  0
   -2.7884   -2.8773    7.9165 C   0  0  0  0  0  4           0  0  0
    1.5787   -2.9999   -1.4621 C   0  0  0  0  0  4           0  0  0
   -3.0796   -0.7191    5.8372 C   0  0  0  0  0  4           0  0  0
    1.6560   -4.9594   -2.7865 C   0  0  0  0  0  4           0  0  0
    0.0000    0.0000    0.0000 C   0  0  0  0  0  4           0  0  0
    1.7724    2.5193    0.0302 C   0  0  0  0  0  4           0  0  0
    1.7845   -2.5190   -0.0479 C   0  0  0  0  0  4           0  0  0
    2.5020    3.4110   -0.9696 C   0  0  0  0  0  4           0  0  0
    2.0357    4.8675   -0.9821 C   0  0  0  0  0  4           0  0  0
    2.7868    5.7231   -1.9914 C   0  0  0  0  0  4           0  0  0
  1 10  1  0     0  0
  2 25  2  0     0  0
  3 26  2  0     0  0
  4 27  2  0     0  0
  5 26  1  0     0  0
  5 28  1  0     0  0
  6 25  1  0     0  0
  7 11  1  0     0  0
  7 12  1  0     0  0
  7 29  1  0     0  0
  8 10  1  0     0  0
  8 11  2  0     0  0
  9 13  1  0     0  0
  9 27  1  0     0  0
 10 12  2  0     0  0
 11 30  1  0     0  0
 12 31  1  0     0  0
 13 17  2  0     0  0
 13 18  1  0     0  0
 14 15  1  0     0  0
 14 19  2  0     0  0
 14 25  1  0     0  0
 15 20  2  0     0  0
 15 27  1  0     0  0
 16 21  2  0     0  0
 16 22  1  0     0  0
 16 29  1  0     0  0
 17 21  1  0     0  0
 18 22  2  0     0  0
 19 23  1  0     0  0
 20 24  1  0     0  0
 23 24  2  0     0  0
 26 31  1  0     0  0
 30 32  1  0     0  0
 32 33  1  0     0  0
 33 34  1  0     0  0
M  END
> <standard_type>
pIC50

> <# Confs.>
25

> <canonical_smiles>
ClC(N=C1CCCC)=C(CC(OC)=O)N1CC2=CC=C(NC(C3=CC=CC=C3C(O)=O)=O)C=C2

> <standard_relation>
=

> <Publication_ID>
nan

> <predicted_activity_value>
5.468521082957745

> <actual_activity_value>
6.853871964321762

> <Compound>
9

> <standard_units>
nM

> hash
16389122266415346093

$$$$
9_
XXILIB    08252103503D 0   0.00000     0.00000

 34 36  0     1  0            999 V2000
    5.0080   -1.4815   -0.1021 Cl  0  0  0  0  0  1           0  0  0
    0.1310    1.1754    8.2134 O   0  0  0  0  0  2           0  0  0
    1.2658   -2.3011   -2.4169 O   0  0  0  0  0  2           0  0  0
   -0.7833   -1.5797    6.3267 O   0  0  0  0  0  2           0  0  0
    1.8058   -4.3462   -1.5016 O   0  0  0  0  0  2           0  0  0
    0.3401   -0.5236    9.7185 O   0  0  0  0  0  2           0  0  0
    1.4519    0.0000   -0.0000 N   0  0  0  0  0  3           0  0  0
    3.5357    0.7699   -0.0300 N   0  0  0  0  0  3           0  0  0
   -2.1254    0.0120    5.3110 N   0  0  0  0  0  3           0  0  0
    3.5498   -0.5999   -0.0532 C   0  0  0  0  0  4           0  0  0
    2.2647    1.1169    0.0000 C   0  0  0  0  0  4           0  0  0
    2.2666   -1.1149   -0.0368 C   0  0  0  0  0  4           0  0  0
   -1.5762   -0.0184    4.0146 C   0  0  0  0  0  4           0  0  0
   -1.7677   -0.1334    8.8189 C   0  0  0  0  0  4           0  0  0
   -2.4224   -0.5618    7.6511 C   0  0  0  0  0  4           0  0  0
   -0.5415    0.0000    1.3968 C   0  0  0  0  0  4           0  0  0
   -0.5145   -0.8615    3.6712 C   0  0  0  0  0  4           0  0  0
   -2.1218    0.8297    3.0457 C   0  0  0  0  0  4           0  0  0
   -2.4697   -0.0443   10.0277 C   0  0  0  0  0  4           0  0  0
   -3.7883   -0.8760    7.7099 C   0  0  0  0  0  4           0  0  0
   -0.0042   -0.8528    2.3700 C   0  0  0  0  0  4           0  0  0
   -1.6092    0.8363    1.7462 C   0  0  0  0  0  4           0  0  0
   -3.8266   -0.3614   10.0722 C   0  0  0  0  0  4           0  0  0
   -4.4849   -0.7720    8.9154 C   0  0  0  0  0  4           0  0  0
   -0.3497    0.2617    8.8619 C   0  0  0  0  0  4           0  0  0
    1.5787   -2.9999   -1.4621 C   0  0  0  0  0  4           0  0  0
   -1.6993   -0.7613    6.3724 C   0  0  0  0  0  4           0  0  0
    1.6560   -4.9594   -2.7865 C   0  0  0  0  0  4           0  0  0
    0.0000    0.0000    0.0000 C   0  0  0  0  0  4           0  0  0
    1.7724    2.5193    0.0302 C   0  0  0  0  0  4           0  0  0
    1.7845   -2.5190   -0.0479 C   0  0  0  0  0  4           0  0  0
    1.5524    3.0862   -1.3688 C   0  0  0  0  0  4           0  0  0
    2.8044    3.1190   -2.2465 C   0  0  0  0  0  4           0  0  0
    2.5437    3.6906   -3.6323 C   0  0  0  0  0  4           0  0  0
  1 10  1  0     0  0
  2 25  2  0     0  0
  3 26  2  0     0  0
  4 27  2  0     0  0
  5 26  1  0     0  0
  5 28  1  0     0  0
  6 25  1  0     0  0
  7 11  1  0     0  0
  7 12  1  0     0  0
  7 29  1  0     0  0
  8 10  1  0     0  0
  8 11  2  0     0  0
  9 13  1  0     0  0
  9 27  1  0     0  0
 10 12  2  0     0  0
 11 30  1  0     0  0
 12 31  1  0     0  0
 13 17  2  0     0  0
 13 18  1  0     0  0
 14 15  1  0     0  0
 14 19  2  0     0  0
 14 25  1  0     0  0
 15 20  2  0     0  0
 15 27  1  0     0  0
 16 21  2  0     0  0
 16 22  1  0     0  0
 16 29  1  0     0  0
 17 21  1  0     0  0
 18 22  2  0     0  0
 19 23  1  0     0  0
 20 24  1  0     0  0
 23 24  2  0     0  0
 26 31  1  0     0  0
 30 32  1  0     0  0
 32 33  1  0     0  0
 33 34  1  0     0  0
M  END
> <standard_type>
pIC50

> <# Confs.>
25

> <canonical_smiles>
ClC(N=C1CCCC)=C(CC(OC)=O)N1CC2=CC=C(NC(C3=CC=CC=C3C(O)=O)=O)C=C2

> <standard_relation>
=

> <Publication_ID>
nan

> <predicted_activity_value>
5.468521082957745

> <actual_activity_value>
6.853871964321762

> <Compound>
9

> <standard_units>
nM

> hash
16389122266415346093

$$$$
9_
XXILIB    08252103503D 0   0.00000     0.00000

 34 36  0     1  0            999 V2000
    5.0080   -1.4815   -0.1021 Cl  0  0  0  0  0  1           0  0  0
   -3.4772   -3.3695    6.7248 O   0  0  0  0  0  2           0  0  0
    1.2658   -2.3011   -2.4169 O   0  0  0  0  0  2           0  0  0
   -0.7833   -1.5797    6.3267 O   0  0  0  0  0  2           0  0  0
    1.8058   -4.3462   -1.5016 O   0  0  0  0  0  2           0  0  0
   -2.5820   -3.8194    8.7723 O   0  0  0  0  0  2           0  0  0
    1.4519    0.0000   -0.0000 N   0  0  0  0  0  3           0  0  0
    3.5357    0.7699   -0.0300 N   0  0  0  0  0  3           0  0  0
   -2.1254    0.0120    5.3110 N   0  0  0  0  0  3           0  0  0
    3.5498   -0.5999   -0.0532 C   0  0  0  0  0  4           0  0  0
    2.2647    1.1169    0.0000 C   0  0  0  0  0  4           0  0  0
    2.2666   -1.1149   -0.0368 C   0  0  0  0  0  4           0  0  0
   -1.5762   -0.0184    4.0146 C   0  0  0  0  0  4           0  0  0
   -3.1113   -1.6078    8.2892 C   0  0  0  0  0  4           0  0  0
   -2.4224   -0.5618    7.6511 C   0  0  0  0  0  4           0  0  0
   -0.5415    0.0000    1.3968 C   0  0  0  0  0  4           0  0  0
   -0.5145   -0.8615    3.6712 C   0  0  0  0  0  4           0  0  0
   -2.1218    0.8297    3.0457 C   0  0  0  0  0  4           0  0  0
   -3.8568   -1.3565    9.4481 C   0  0  0  0  0  4           0  0  0
   -2.4746    0.7270    8.2027 C   0  0  0  0  0  4           0  0  0
   -0.0042   -0.8528    2.3700 C   0  0  0  0  0  4           0  0  0
   -1.6092    0.8363    1.7462 C   0  0  0  0  0  4           0  0  0
   -3.9014   -0.0705    9.9845 C   0  0  0  0  0  4           0  0  0
   -3.2087    0.9675    9.3657 C   0  0  0  0  0  4           0  0  0
   -3.0903   -3.0042    7.8218 C   0  0  0  0  0  4           0  0  0
    1.5787   -2.9999   -1.4621 C   0  0  0  0  0  4           0  0  0
   -1.6993   -0.7613    6.3724 C   0  0  0  0  0  4           0  0  0
    1.6560   -4.9594   -2.7865 C   0  0  0  0  0  4           0  0  0
    0.0000    0.0000    0.0000 C   0  0  0  0  0  4           0  0  0
    1.7724    2.5193    0.0302 C   0  0  0  0  0  4           0  0  0
    1.7845   -2.5190   -0.0479 C   0  0  0  0  0  4           0  0  0
    1.5524    3.0862   -1.3688 C   0  0  0  0  0  4           0  0  0
    1.0451    4.5287   -1.3985 C   0  0  0  0  0  4           0  0  0
    0.8385    5.0569   -2.8104 C   0  0  0  0  0  4           0  0  0
  1 10  1  0     0  0
  2 25  2  0     0  0
  3 26  2  0     0  0
  4 27  2  0     0  0
  5 26  1  0     0  0
  5 28  1  0     0  0
  6 25  1  0     0  0
  7 11  1  0     0  0
  7 12  1  0     0  0
  7 29  1  0     0  0
  8 10  1  0     0  0
  8 11  2  0     0  0
  9 13  1  0     0  0
  9 27  1  0     0  0
 10 12  2  0     0  0
 11 30  1  0     0  0
 12 31  1  0     0  0
 13 17  2  0     0  0
 13 18  1  0     0  0
 14 15  1  0     0  0
 14 19  2  0     0  0
 14 25  1  0     0  0
 15 20  2  0     0  0
 15 27  1  0     0  0
 16 21  2  0     0  0
 16 22  1  0     0  0
 16 29  1  0     0  0
 17 21  1  0     0  0
 18 22  2  0     0  0
 19 23  1  0     0  0
 20 24  1  0     0  0
 23 24  2  0     0  0
 26 31  1  0     0  0
 30 32  1  0     0  0
 32 33  1  0     0  0
 33 34  1  0     0  0
M  END
> <standard_type>
pIC50

> <# Confs.>
25

> <canonical_smiles>
ClC(N=C1CCCC)=C(CC(OC)=O)N1CC2=CC=C(NC(C3=CC=CC=C3C(O)=O)=O)C=C2

> <standard_relation>
=

> <Publication_ID>
nan

> <predicted_activity_value>
5.468521082957745

> <actual_activity_value>
6.853871964321762

> <Compound>
9

> <standard_units>
nM

> hash
16389122266415346093

$$$$
9_
XXILIB    08252103503D 0   0.00000     0.00000

 34 36  0     1  0            999 V2000
    5.0080   -1.4815   -0.1021 Cl  0  0  0  0  0  1           0  0  0
   -5.8625    0.8112    5.8001 O   0  0  0  0  0  2           0  0  0
    1.2658   -2.3011   -2.4169 O   0  0  0  0  0  2           0  0  0
   -3.7075   -1.5566    5.1930 O   0  0  0  0  0  2           0  0  0
    1.8058   -4.3462   -1.5016 O   0  0  0  0  0  2           0  0  0
   -6.8550   -0.7636    7.1157 O   0  0  0  0  0  2           0  0  0
    1.4519    0.0000   -0.0000 N   0  0  0  0  0  3           0  0  0
    3.5357    0.7699   -0.0300 N   0  0  0  0  0  3           0  0  0
   -2.0565    0.0619    5.3377 N   0  0  0  0  0  3           0  0  0
    3.5498   -0.5999   -0.0532 C   0  0  0  0  0  4           0  0  0
    2.2647    1.1169    0.0000 C   0  0  0  0  0  4           0  0  0
    2.2666   -1.1149   -0.0368 C   0  0  0  0  0  4           0  0  0
   -1.5761    0.0185    4.0147 C   0  0  0  0  0  4           0  0  0
   -4.6994   -0.0954    7.6735 C   0  0  0  0  0  4           0  0  0
   -3.4190   -0.5071    7.2647 C   0  0  0  0  0  4           0  0  0
   -0.5415   -0.0000    1.3968 C   0  0  0  0  0  4           0  0  0
   -2.1078   -0.8473    3.0535 C   0  0  0  0  0  4           0  0  0
   -0.5301    0.8773    3.6628 C   0  0  0  0  0  4           0  0  0
   -4.9531    0.1808    9.0231 C   0  0  0  0  0  4           0  0  0
   -2.4101   -0.6578    8.2277 C   0  0  0  0  0  4           0  0  0
   -1.5944   -0.8528    1.7534 C   0  0  0  0  0  4           0  0  0
   -0.0190    0.8692    2.3627 C   0  0  0  0  0  4           0  0  0
   -3.9406    0.0285    9.9693 C   0  0  0  0  0  4           0  0  0
   -2.6737   -0.3937    9.5731 C   0  0  0  0  0  4           0  0  0
   -5.8410    0.0539    6.7554 C   0  0  0  0  0  4           0  0  0
    1.5787   -2.9999   -1.4621 C   0  0  0  0  0  4           0  0  0
   -3.0796   -0.7191    5.8372 C   0  0  0  0  0  4           0  0  0
    1.6560   -4.9594   -2.7865 C   0  0  0  0  0  4           0  0  0
    0.0000    0.0000    0.0000 C   0  0  0  0  0  4           0  0  0
    1.7724    2.5193    0.0302 C   0  0  0  0  0  4           0  0  0
    1.7845   -2.5190   -0.0479 C   0  0  0  0  0  4           0  0  0
    2.5020    3.4110   -0.9696 C   0  0  0  0  0  4           0  0  0
    2.3715    2.9710   -2.4284 C   0  0  0  0  0  4           0  0  0
    3.1123    3.8850   -3.3932 C   0  0  0  0  0  4           0  0  0
  1 10  1  0     0  0
  2 25  2  0     0  0
  3 26  2  0     0  0
  4 27  2  0     0  0
  5 26  1  0     0  0
  5 28  1  0     0  0
  6 25  1  0     0  0
  7 11  1  0     0  0
  7 12  1  0     0  0
  7 29  1  0     0  0
  8 10  1  0     0  0
  8 11  2  0     0  0
  9 13  1  0     0  0
  9 27  1  0     0  0
 10 12  2  0     0  0
 11 30  1  0     0  0
 12 31  1  0     0  0
 13 17  2  0     0  0
 13 18  1  0     0  0
 14 15  1  0     0  0
 14 19  2  0     0  0
 14 25  1  0     0  0
 15 20  2  0     0  0
 15 27  1  0     0  0
 16 21  2  0     0  0
 16 22  1  0     0  0
 16 29  1  0     0  0
 17 21  1  0     0  0
 18 22  2  0     0  0
 19 23  1  0     0  0
 20 24  1  0     0  0
 23 24  2  0     0  0
 26 31  1  0     0  0
 30 32  1  0     0  0
 32 33  1  0     0  0
 33 34  1  0     0  0
M  END
> <standard_type>
pIC50

> <# Confs.>
25

> <canonical_smiles>
ClC(N=C1CCCC)=C(CC(OC)=O)N1CC2=CC=C(NC(C3=CC=CC=C3C(O)=O)=O)C=C2

> <standard_relation>
=

> <Publication_ID>
nan

> <predicted_activity_value>
5.468521082957745

> <actual_activity_value>
6.853871964321762

> <Compound>
9

> <standard_units>
nM

> hash
16389122266415346093

$$$$
9_
XXILIB    08252103503D 0   0.00000     0.00000

 34 36  0     1  0            999 V2000
    5.0080   -1.4815   -0.1021 Cl  0  0  0  0  0  1           0  0  0
    0.1310    1.1754    8.2134 O   0  0  0  0  0  2           0  0  0
    1.2658   -2.3011   -2.4169 O   0  0  0  0  0  2           0  0  0
   -0.7833   -1.5797    6.3267 O   0  0  0  0  0  2           0  0  0
    1.8058   -4.3462   -1.5016 O   0  0  0  0  0  2           0  0  0
    0.3401   -0.5236    9.7185 O   0  0  0  0  0  2           0  0  0
    1.4519    0.0000   -0.0000 N   0  0  0  0  0  3           0  0  0
    3.5357    0.7699   -0.0300 N   0  0  0  0  0  3           0  0  0
   -2.1254    0.0120    5.3110 N   0  0  0  0  0  3           0  0  0
    3.5498   -0.5999   -0.0532 C   0  0  0  0  0  4           0  0  0
    2.2647    1.1169    0.0000 C   0  0  0  0  0  4           0  0  0
    2.2666   -1.1149   -0.0368 C   0  0  0  0  0  4           0  0  0
   -1.5762   -0.0184    4.0146 C   0  0  0  0  0  4           0  0  0
   -1.7677   -0.1334    8.8189 C   0  0  0  0  0  4           0  0  0
   -2.4224   -0.5618    7.6511 C   0  0  0  0  0  4           0  0  0
   -0.5415    0.0000    1.3968 C   0  0  0  0  0  4           0  0  0
   -0.5145   -0.8615    3.6712 C   0  0  0  0  0  4           0  0  0
   -2.1218    0.8297    3.0457 C   0  0  0  0  0  4           0  0  0
   -2.4697   -0.0443   10.0277 C   0  0  0  0  0  4           0  0  0
   -3.7883   -0.8760    7.7099 C   0  0  0  0  0  4           0  0  0
   -0.0042   -0.8528    2.3700 C   0  0  0  0  0  4           0  0  0
   -1.6092    0.8363    1.7462 C   0  0  0  0  0  4           0  0  0
   -3.8266   -0.3614   10.0722 C   0  0  0  0  0  4           0  0  0
   -4.4849   -0.7720    8.9154 C   0  0  0  0  0  4           0  0  0
   -0.3497    0.2617    8.8619 C   0  0  0  0  0  4           0  0  0
    1.5787   -2.9999   -1.4621 C   0  0  0  0  0  4           0  0  0
   -1.6993   -0.7613    6.3724 C   0  0  0  0  0  4           0  0  0
    1.6560   -4.9594   -2.7865 C   0  0  0  0  0  4           0  0  0
    0.0000    0.0000    0.0000 C   0  0  0  0  0  4           0  0  0
    1.7724    2.5193    0.0302 C   0  0  0  0  0  4           0  0  0
    1.7845   -2.5190   -0.0479 C   0  0  0  0  0  4           0  0  0
    1.6088    3.0452    1.4528 C   0  0  0  0  0  4           0  0  0
    1.1039    4.4859    1.5447 C   0  0  0  0  0  4           0  0  0
    0.9542    4.9727    2.9785 C   0  0  0  0  0  4           0  0  0
  1 10  1  0     0  0
  2 25  2  0     0  0
  3 26  2  0     0  0
  4 27  2  0     0  0
  5 26  1  0     0  0
  5 28  1  0     0  0
  6 25  1  0     0  0
  7 11  1  0     0  0
  7 12  1  0     0  0
  7 29  1  0     0  0
  8 10  1  0     0  0
  8 11  2  0     0  0
  9 13  1  0     0  0
  9 27  1  0     0  0
 10 12  2  0     0  0
 11 30  1  0     0  0
 12 31  1  0     0  0
 13 17  2  0     0  0
 13 18  1  0     0  0
 14 15  1  0     0  0
 14 19  2  0     0  0
 14 25  1  0     0  0
 15 20  2  0     0  0
 15 27  1  0     0  0
 16 21  2  0     0  0
 16 22  1  0     0  0
 16 29  1  0     0  0
 17 21  1  0     0  0
 18 22  2  0     0  0
 19 23  1  0     0  0
 20 24  1  0     0  0
 23 24  2  0     0  0
 26 31  1  0     0  0
 30 32  1  0     0  0
 32 33  1  0     0  0
 33 34  1  0     0  0
M  END
> <standard_type>
pIC50

> <# Confs.>
25

> <canonical_smiles>
ClC(N=C1CCCC)=C(CC(OC)=O)N1CC2=CC=C(NC(C3=CC=CC=C3C(O)=O)=O)C=C2

> <standard_relation>
=

> <Publication_ID>
nan

> <predicted_activity_value>
5.468521082957745

> <actual_activity_value>
6.853871964321762

> <Compound>
9

> <standard_units>
nM

> hash
16389122266415346093

$$$$
9_
XXILIB    08252103503D 0   0.00000     0.00000

 34 36  0     1  0            999 V2000
    5.0080   -1.4815   -0.1021 Cl  0  0  0  0  0  1           0  0  0
    0.1310    1.1754    8.2134 O   0  0  0  0  0  2           0  0  0
    1.2658   -2.3011   -2.4169 O   0  0  0  0  0  2           0  0  0
   -0.7833   -1.5797    6.3267 O   0  0  0  0  0  2           0  0  0
    1.8058   -4.3462   -1.5016 O   0  0  0  0  0  2           0  0  0
    0.3401   -0.5236    9.7185 O   0  0  0  0  0  2           0  0  0
    1.4519    0.0000   -0.0000 N   0  0  0  0  0  3           0  0  0
    3.5357    0.7699   -0.0300 N   0  0  0  0  0  3           0  0  0
   -2.1254    0.0120    5.3110 N   0  0  0  0  0  3           0  0  0
    3.5498   -0.5999   -0.0532 C   0  0  0  0  0  4           0  0  0
    2.2647    1.1169    0.0000 C   0  0  0  0  0  4           0  0  0
    2.2666   -1.1149   -0.0368 C   0  0  0  0  0  4           0  0  0
   -1.5762   -0.0184    4.0146 C   0  0  0  0  0  4           0  0  0
   -1.7677   -0.1334    8.8189 C   0  0  0  0  0  4           0  0  0
   -2.4224   -0.5618    7.6511 C   0  0  0  0  0  4           0  0  0
   -0.5415    0.0000    1.3968 C   0  0  0  0  0  4           0  0  0
   -0.5145   -0.8615    3.6712 C   0  0  0  0  0  4           0  0  0
   -2.1218    0.8297    3.0457 C   0  0  0  0  0  4           0  0  0
   -2.4697   -0.0443   10.0277 C   0  0  0  0  0  4           0  0  0
   -3.7883   -0.8760    7.7099 C   0  0  0  0  0  4           0  0  0
   -0.0042   -0.8528    2.3700 C   0  0  0  0  0  4           0  0  0
   -1.6092    0.8363    1.7462 C   0  0  0  0  0  4           0  0  0
   -3.8266   -0.3614   10.0722 C   0  0  0  0  0  4           0  0  0
   -4.4849   -0.7720    8.9154 C   0  0  0  0  0  4           0  0  0
   -0.3497    0.2617    8.8619 C   0  0  0  0  0  4           0  0  0
    1.5787   -2.9999   -1.4621 C   0  0  0  0  0  4           0  0  0
   -1.6993   -0.7613    6.3724 C   0  0  0  0  0  4           0  0  0
    1.6560   -4.9594   -2.7865 C   0  0  0  0  0  4           0  0  0
    0.0000    0.0000    0.0000 C   0  0  0  0  0  4           0  0  0
    1.7724    2.5193    0.0302 C   0  0  0  0  0  4           0  0  0
    1.7845   -2.5190   -0.0479 C   0  0  0  0  0  4           0  0  0
    2.5419    3.3820    1.0256 C   0  0  0  0  0  4           0  0  0
    2.4695    2.8997    2.4751 C   0  0  0  0  0  4           0  0  0
    3.2488    3.7857    3.4357 C   0  0  0  0  0  4           0  0  0
  1 10  1  0     0  0
  2 25  2  0     0  0
  3 26  2  0     0  0
  4 27  2  0     0  0
  5 26  1  0     0  0
  5 28  1  0     0  0
  6 25  1  0     0  0
  7 11  1  0     0  0
  7 12  1  0     0  0
  7 29  1  0     0  0
  8 10  1  0     0  0
  8 11  2  0     0  0
  9 13  1  0     0  0
  9 27  1  0     0  0
 10 12  2  0     0  0
 11 30  1  0     0  0
 12 31  1  0     0  0
 13 17  2  0     0  0
 13 18  1  0     0  0
 14 15  1  0     0  0
 14 19  2  0     0  0
 14 25  1  0     0  0
 15 20  2  0     0  0
 15 27  1  0     0  0
 16 21  2  0     0  0
 16 22  1  0     0  0
 16 29  1  0     0  0
 17 21  1  0     0  0
 18 22  2  0     0  0
 19 23  1  0     0  0
 20 24  1  0     0  0
 23 24  2  0     0  0
 26 31  1  0     0  0
 30 32  1  0     0  0
 32 33  1  0     0  0
 33 34  1  0     0  0
M  END
> <standard_type>
pIC50

> <# Confs.>
25

> <canonical_smiles>
ClC(N=C1CCCC)=C(CC(OC)=O)N1CC2=CC=C(NC(C3=CC=CC=C3C(O)=O)=O)C=C2

> <standard_relation>
=

> <Publication_ID>
nan

> <predicted_activity_value>
5.468521082957745

> <actual_activity_value>
6.853871964321762

> <Compound>
9

> <standard_units>
nM

> hash
16389122266415346093

$$$$
9_
XXILIB    08252103503D 0   0.00000     0.00000

 34 36  0     1  0            999 V2000
    5.0080    1.4815    0.1021 Cl  0  0  0  0  0  1           0  0  0
    0.1310    1.1754    8.2134 O   0  0  0  0  0  2           0  0  0
    1.3773    2.3771   -2.3484 O   0  0  0  0  0  2           0  0  0
   -0.7833   -1.5797    6.3267 O   0  0  0  0  0  2           0  0  0
    1.8605    4.3935   -1.3423 O   0  0  0  0  0  2           0  0  0
    0.3401   -0.5236    9.7185 O   0  0  0  0  0  2           0  0  0
    1.4519    0.0000    0.0000 N   0  0  0  0  0  3           0  0  0
    3.5357   -0.7699    0.0300 N   0  0  0  0  0  3           0  0  0
   -2.1254    0.0120    5.3110 N   0  0  0  0  0  3           0  0  0
    3.5498    0.5999    0.0532 C   0  0  0  0  0  4           0  0  0
    2.2647   -1.1169    0.0000 C   0  0  0  0  0  4           0  0  0
    2.2666    1.1149    0.0368 C   0  0  0  0  0  4           0  0  0
   -1.5762   -0.0184    4.0146 C   0  0  0  0  0  4           0  0  0
   -1.7677   -0.1334    8.8189 C   0  0  0  0  0  4           0  0  0
   -2.4224   -0.5618    7.6511 C   0  0  0  0  0  4           0  0  0
   -0.5415    0.0000    1.3968 C   0  0  0  0  0  4           0  0  0
   -0.5145   -0.8615    3.6712 C   0  0  0  0  0  4           0  0  0
   -2.1218    0.8297    3.0457 C   0  0  0  0  0  4           0  0  0
   -2.4697   -0.0443   10.0277 C   0  0  0  0  0  4           0  0  0
   -3.7883   -0.8760    7.7099 C   0  0  0  0  0  4           0  0  0
   -0.0042   -0.8528    2.3700 C   0  0  0  0  0  4           0  0  0
   -1.6092    0.8363    1.7462 C   0  0  0  0  0  4           0  0  0
   -3.8266   -0.3614   10.0722 C   0  0  0  0  0  4           0  0  0
   -4.4849   -0.7720    8.9154 C   0  0  0  0  0  4           0  0  0
   -0.3497    0.2617    8.8619 C   0  0  0  0  0  4           0  0  0
    1.6447    3.0448   -1.3583 C   0  0  0  0  0  4           0  0  0
   -1.6993   -0.7613    6.3724 C   0  0  0  0  0  4           0  0  0
    1.7570    5.0497   -2.6104 C   0  0  0  0  0  4           0  0  0
    0.0000    0.0000    0.0000 C   0  0  0  0  0  4           0  0  0
    1.7724   -2.5193   -0.0302 C   0  0  0  0  0  4           0  0  0
    1.7845    2.5190    0.0479 C   0  0  0  0  0  4           0  0  0
    1.6088   -3.0452   -1.4528 C   0  0  0  0  0  4           0  0  0
    1.1039   -4.4859   -1.5447 C   0  0  0  0  0  4           0  0  0
    0.9542   -4.9727   -2.9785 C   0  0  0  0  0  4           0  0  0
  1 10  1  0     0  0
  2 25  2  0     0  0
  3 26  2  0     0  0
  4 27  2  0     0  0
  5 26  1  0     0  0
  5 28  1  0     0  0
  6 25  1  0     0  0
  7 11  1  0     0  0
  7 12  1  0     0  0
  7 29  1  0     0  0
  8 10  1  0     0  0
  8 11  2  0     0  0
  9 13  1  0     0  0
  9 27  1  0     0  0
 10 12  2  0     0  0
 11 30  1  0     0  0
 12 31  1  0     0  0
 13 17  2  0     0  0
 13 18  1  0     0  0
 14 15  1  0     0  0
 14 19  2  0     0  0
 14 25  1  0     0  0
 15 20  2  0     0  0
 15 27  1  0     0  0
 16 21  2  0     0  0
 16 22  1  0     0  0
 16 29  1  0     0  0
 17 21  1  0     0  0
 18 22  2  0     0  0
 19 23  1  0     0  0
 20 24  1  0     0  0
 23 24  2  0     0  0
 26 31  1  0     0  0
 30 32  1  0     0  0
 32 33  1  0     0  0
 33 34  1  0     0  0
M  END
> <standard_type>
pIC50

> <# Confs.>
25

> <canonical_smiles>
ClC(N=C1CCCC)=C(CC(OC)=O)N1CC2=CC=C(NC(C3=CC=CC=C3C(O)=O)=O)C=C2

> <standard_relation>
=

> <Publication_ID>
nan

> <predicted_activity_value>
5.468521082957745

> <actual_activity_value>
6.853871964321762

> <Compound>
9

> <standard_units>
nM

> hash
16389122266415346093

$$$$
9_
XXILIB    08252103503D 0   0.00000     0.00000

 34 36  0     1  0            999 V2000
    5.0080    1.4815    0.1021 Cl  0  0  0  0  0  1           0  0  0
    0.1310    1.1754    8.2134 O   0  0  0  0  0  2           0  0  0
    1.3773    2.3771   -2.3484 O   0  0  0  0  0  2           0  0  0
   -0.7833   -1.5797    6.3267 O   0  0  0  0  0  2           0  0  0
    1.8605    4.3935   -1.3423 O   0  0  0  0  0  2           0  0  0
    0.3401   -0.5236    9.7185 O   0  0  0  0  0  2           0  0  0
    1.4519    0.0000    0.0000 N   0  0  0  0  0  3           0  0  0
    3.5357   -0.7699    0.0300 N   0  0  0  0  0  3           0  0  0
   -2.1254    0.0120    5.3110 N   0  0  0  0  0  3           0  0  0
    3.5498    0.5999    0.0532 C   0  0  0  0  0  4           0  0  0
    2.2647   -1.1169    0.0000 C   0  0  0  0  0  4           0  0  0
    2.2666    1.1149    0.0368 C   0  0  0  0  0  4           0  0  0
   -1.5762   -0.0184    4.0146 C   0  0  0  0  0  4           0  0  0
   -1.7677   -0.1334    8.8189 C   0  0  0  0  0  4           0  0  0
   -2.4224   -0.5618    7.6511 C   0  0  0  0  0  4           0  0  0
   -0.5415    0.0000    1.3968 C   0  0  0  0  0  4           0  0  0
   -0.5145   -0.8615    3.6712 C   0  0  0  0  0  4           0  0  0
   -2.1218    0.8297    3.0457 C   0  0  0  0  0  4           0  0  0
   -2.4697   -0.0443   10.0277 C   0  0  0  0  0  4           0  0  0
   -3.7883   -0.8760    7.7099 C   0  0  0  0  0  4           0  0  0
   -0.0042   -0.8528    2.3700 C   0  0  0  0  0  4           0  0  0
   -1.6092    0.8363    1.7462 C   0  0  0  0  0  4           0  0  0
   -3.8266   -0.3614   10.0722 C   0  0  0  0  0  4           0  0  0
   -4.4849   -0.7720    8.9154 C   0  0  0  0  0  4           0  0  0
   -0.3497    0.2617    8.8619 C   0  0  0  0  0  4           0  0  0
    1.6447    3.0448   -1.3583 C   0  0  0  0  0  4           0  0  0
   -1.6993   -0.7613    6.3724 C   0  0  0  0  0  4           0  0  0
    1.7570    5.0497   -2.6104 C   0  0  0  0  0  4           0  0  0
    0.0000    0.0000    0.0000 C   0  0  0  0  0  4           0  0  0
    1.7724   -2.5193   -0.0302 C   0  0  0  0  0  4           0  0  0
    1.7845    2.5190    0.0479 C   0  0  0  0  0  4           0  0  0
    2.5419   -3.3820   -1.0256 C   0  0  0  0  0  4           0  0  0
    2.4695   -2.8997   -2.4751 C   0  0  0  0  0  4           0  0  0
    3.2488   -3.7857   -3.4357 C   0  0  0  0  0  4           0  0  0
  1 10  1  0     0  0
  2 25  2  0     0  0
  3 26  2  0     0  0
  4 27  2  0     0  0
  5 26  1  0     0  0
  5 28  1  0     0  0
  6 25  1  0     0  0
  7 11  1  0     0  0
  7 12  1  0     0  0
  7 29  1  0     0  0
  8 10  1  0     0  0
  8 11  2  0     0  0
  9 13  1  0     0  0
  9 27  1  0     0  0
 10 12  2  0     0  0
 11 30  1  0     0  0
 12 31  1  0     0  0
 13 17  2  0     0  0
 13 18  1  0     0  0
 14 15  1  0     0  0
 14 19  2  0     0  0
 14 25  1  0     0  0
 15 20  2  0     0  0
 15 27  1  0     0  0
 16 21  2  0     0  0
 16 22  1  0     0  0
 16 29  1  0     0  0
 17 21  1  0     0  0
 18 22  2  0     0  0
 19 23  1  0     0  0
 20 24  1  0     0  0
 23 24  2  0     0  0
 26 31  1  0     0  0
 30 32  1  0     0  0
 32 33  1  0     0  0
 33 34  1  0     0  0
M  END
> <standard_type>
pIC50

> <# Confs.>
25

> <canonical_smiles>
ClC(N=C1CCCC)=C(CC(OC)=O)N1CC2=CC=C(NC(C3=CC=CC=C3C(O)=O)=O)C=C2

> <standard_relation>
=

> <Publication_ID>
nan

> <predicted_activity_value>
5.468521082957745

> <actual_activity_value>
6.853871964321762

> <Compound>
9

> <standard_units>
nM

> hash
16389122266415346093

$$$$
9_
XXILIB    08252103503D 0   0.00000     0.00000

 34 36  0     1  0            999 V2000
    5.0080   -1.4815   -0.1021 Cl  0  0  0  0  0  1           0  0  0
   -5.9282    2.6641    7.3942 O   0  0  0  0  0  2           0  0  0
    1.2658   -2.3011   -2.4169 O   0  0  0  0  0  2           0  0  0
   -2.2195    2.2177    5.7699 O   0  0  0  0  0  2           0  0  0
    1.8058   -4.3462   -1.5016 O   0  0  0  0  0  2           0  0  0
   -4.9488    1.4368    5.7418 O   0  0  0  0  0  2           0  0  0
    1.4519    0.0000   -0.0000 N   0  0  0  0  0  3           0  0  0
    3.5357    0.7699   -0.0300 N   0  0  0  0  0  3           0  0  0
   -2.0348   -0.0522    5.3461 N   0  0  0  0  0  3           0  0  0
    3.5498   -0.5999   -0.0532 C   0  0  0  0  0  4           0  0  0
    2.2647    1.1169    0.0000 C   0  0  0  0  0  4           0  0  0
    2.2666   -1.1149   -0.0368 C   0  0  0  0  0  4           0  0  0
   -1.5347   -0.0001    4.0307 C   0  0  0  0  0  4           0  0  0
   -4.1304    1.1830    7.9029 C   0  0  0  0  0  4           0  0  0
   -2.8591    0.7558    7.4817 C   0  0  0  0  0  4           0  0  0
   -0.5415    0.0000    1.3968 C   0  0  0  0  0  4           0  0  0
   -1.2952    1.2083    3.3685 C   0  0  0  0  0  4           0  0  0
   -1.2724   -1.2071    3.3750 C   0  0  0  0  0  4           0  0  0
   -4.5448    0.9661    9.2233 C   0  0  0  0  0  4           0  0  0
   -2.0246    0.0925    8.3937 C   0  0  0  0  0  4           0  0  0
   -0.7993    1.2060    2.0617 C   0  0  0  0  0  4           0  0  0
   -0.7771   -1.2060    2.0688 C   0  0  0  0  0  4           0  0  0
   -3.7045    0.3071   10.1195 C   0  0  0  0  0  4           0  0  0
   -2.4495   -0.1322    9.7045 C   0  0  0  0  0  4           0  0  0
   -5.1020    1.8495    7.0195 C   0  0  0  0  0  4           0  0  0
    1.5787   -2.9999   -1.4621 C   0  0  0  0  0  4           0  0  0
   -2.3418    1.0468    6.1232 C   0  0  0  0  0  4           0  0  0
    1.6560   -4.9594   -2.7865 C   0  0  0  0  0  4           0  0  0
    0.0000    0.0000   -0.0000 C   0  0  0  0  0  4           0  0  0
    1.7724    2.5193    0.0302 C   0  0  0  0  0  4           0  0  0
    1.7845   -2.5190   -0.0479 C   0  0  0  0  0  4           0  0  0
    2.5020    3.4110   -0.9696 C   0  0  0  0  0  4           0  0  0
    2.3715    2.9710   -2.4284 C   0  0  0  0  0  4           0  0  0
    3.1123    3.8850   -3.3932 C   0  0  0  0  0  4           0  0  0
  1 10  1  0     0  0
  2 25  2  0     0  0
  3 26  2  0     0  0
  4 27  2  0     0  0
  5 26  1  0     0  0
  5 28  1  0     0  0
  6 25  1  0     0  0
  7 11  1  0     0  0
  7 12  1  0     0  0
  7 29  1  0     0  0
  8 10  1  0     0  0
  8 11  2  0     0  0
  9 13  1  0     0  0
  9 27  1  0     0  0
 10 12  2  0     0  0
 11 30  1  0     0  0
 12 31  1  0     0  0
 13 17  2  0     0  0
 13 18  1  0     0  0
 14 15  1  0     0  0
 14 19  2  0     0  0
 14 25  1  0     0  0
 15 20  2  0     0  0
 15 27  1  0     0  0
 16 21  2  0     0  0
 16 22  1  0     0  0
 16 29  1  0     0  0
 17 21  1  0     0  0
 18 22  2  0     0  0
 19 23  1  0     0  0
 20 24  1  0     0  0
 23 24  2  0     0  0
 26 31  1  0     0  0
 30 32  1  0     0  0
 32 33  1  0     0  0
 33 34  1  0     0  0
M  END
> <standard_type>
pIC50

> <# Confs.>
25

> <canonical_smiles>
ClC(N=C1CCCC)=C(CC(OC)=O)N1CC2=CC=C(NC(C3=CC=CC=C3C(O)=O)=O)C=C2

> <standard_relation>
=

> <Publication_ID>
nan

> <predicted_activity_value>
5.468521082957745

> <actual_activity_value>
6.853871964321762

> <Compound>
9

> <standard_units>
nM

> hash
16389122266415346093

$$$$
9_
XXILIB    08252103503D 0   0.00000     0.00000

 34 36  0     1  0            999 V2000
    5.0080   -1.4815   -0.1021 Cl  0  0  0  0  0  1           0  0  0
   -3.4772   -3.3695    6.7248 O   0  0  0  0  0  2           0  0  0
    1.2658   -2.3011   -2.4169 O   0  0  0  0  0  2           0  0  0
   -0.7833   -1.5797    6.3267 O   0  0  0  0  0  2           0  0  0
    1.8058   -4.3462   -1.5016 O   0  0  0  0  0  2           0  0  0
   -2.5820   -3.8194    8.7723 O   0  0  0  0  0  2           0  0  0
    1.4519    0.0000   -0.0000 N   0  0  0  0  0  3           0  0  0
    3.5357    0.7699   -0.0300 N   0  0  0  0  0  3           0  0  0
   -2.1254    0.0120    5.3110 N   0  0  0  0  0  3           0  0  0
    3.5498   -0.5999   -0.0532 C   0  0  0  0  0  4           0  0  0
    2.2647    1.1169    0.0000 C   0  0  0  0  0  4           0  0  0
    2.2666   -1.1149   -0.0368 C   0  0  0  0  0  4           0  0  0
   -1.5762   -0.0184    4.0146 C   0  0  0  0  0  4           0  0  0
   -3.1113   -1.6078    8.2892 C   0  0  0  0  0  4           0  0  0
   -2.4224   -0.5618    7.6511 C   0  0  0  0  0  4           0  0  0
   -0.5415    0.0000    1.3968 C   0  0  0  0  0  4           0  0  0
   -0.5145   -0.8615    3.6712 C   0  0  0  0  0  4           0  0  0
   -2.1218    0.8297    3.0457 C   0  0  0  0  0  4           0  0  0
   -3.8568   -1.3565    9.4481 C   0  0  0  0  0  4           0  0  0
   -2.4746    0.7270    8.2027 C   0  0  0  0  0  4           0  0  0
   -0.0042   -0.8528    2.3700 C   0  0  0  0  0  4           0  0  0
   -1.6092    0.8363    1.7462 C   0  0  0  0  0  4           0  0  0
   -3.9014   -0.0705    9.9845 C   0  0  0  0  0  4           0  0  0
   -3.2087    0.9675    9.3657 C   0  0  0  0  0  4           0  0  0
   -3.0903   -3.0042    7.8218 C   0  0  0  0  0  4           0  0  0
    1.5787   -2.9999   -1.4621 C   0  0  0  0  0  4           0  0  0
   -1.6993   -0.7613    6.3724 C   0  0  0  0  0  4           0  0  0
    1.6560   -4.9594   -2.7865 C   0  0  0  0  0  4           0  0  0
    0.0000    0.0000    0.0000 C   0  0  0  0  0  4           0  0  0
    1.7724    2.5193    0.0302 C   0  0  0  0  0  4           0  0  0
    1.7845   -2.5190   -0.0479 C   0  0  0  0  0  4           0  0  0
    1.5524    3.0862   -1.3688 C   0  0  0  0  0  4           0  0  0
    2.8044    3.1190   -2.2465 C   0  0  0  0  0  4           0  0  0
    2.5437    3.6906   -3.6323 C   0  0  0  0  0  4           0  0  0
  1 10  1  0     0  0
  2 25  2  0     0  0
  3 26  2  0     0  0
  4 27  2  0     0  0
  5 26  1  0     0  0
  5 28  1  0     0  0
  6 25  1  0     0  0
  7 11  1  0     0  0
  7 12  1  0     0  0
  7 29  1  0     0  0
  8 10  1  0     0  0
  8 11  2  0     0  0
  9 13  1  0     0  0
  9 27  1  0     0  0
 10 12  2  0     0  0
 11 30  1  0     0  0
 12 31  1  0     0  0
 13 17  2  0     0  0
 13 18  1  0     0  0
 14 15  1  0     0  0
 14 19  2  0     0  0
 14 25  1  0     0  0
 15 20  2  0     0  0
 15 27  1  0     0  0
 16 21  2  0     0  0
 16 22  1  0     0  0
 16 29  1  0     0  0
 17 21  1  0     0  0
 18 22  2  0     0  0
 19 23  1  0     0  0
 20 24  1  0     0  0
 23 24  2  0     0  0
 26 31  1  0     0  0
 30 32  1  0     0  0
 32 33  1  0     0  0
 33 34  1  0     0  0
M  END
> <standard_type>
pIC50

> <# Confs.>
25

> <canonical_smiles>
ClC(N=C1CCCC)=C(CC(OC)=O)N1CC2=CC=C(NC(C3=CC=CC=C3C(O)=O)=O)C=C2

> <standard_relation>
=

> <Publication_ID>
nan

> <predicted_activity_value>
5.468521082957745

> <actual_activity_value>
6.853871964321762

> <Compound>
9

> <standard_units>
nM

> hash
16389122266415346093

$$$$
9_
XXILIB    08252103503D 0   0.00000     0.00000

 34 36  0     1  0            999 V2000
    5.0080   -1.4815   -0.1021 Cl  0  0  0  0  0  1           0  0  0
   -5.8625    0.8112    5.8001 O   0  0  0  0  0  2           0  0  0
    1.2658   -2.3011   -2.4169 O   0  0  0  0  0  2           0  0  0
   -3.7075   -1.5566    5.1930 O   0  0  0  0  0  2           0  0  0
    1.8058   -4.3462   -1.5016 O   0  0  0  0  0  2           0  0  0
   -6.8550   -0.7636    7.1157 O   0  0  0  0  0  2           0  0  0
    1.4519    0.0000   -0.0000 N   0  0  0  0  0  3           0  0  0
    3.5357    0.7699   -0.0300 N   0  0  0  0  0  3           0  0  0
   -2.0565    0.0619    5.3377 N   0  0  0  0  0  3           0  0  0
    3.5498   -0.5999   -0.0532 C   0  0  0  0  0  4           0  0  0
    2.2647    1.1169    0.0000 C   0  0  0  0  0  4           0  0  0
    2.2666   -1.1149   -0.0368 C   0  0  0  0  0  4           0  0  0
   -1.5761    0.0185    4.0147 C   0  0  0  0  0  4           0  0  0
   -4.6994   -0.0954    7.6735 C   0  0  0  0  0  4           0  0  0
   -3.4190   -0.5071    7.2647 C   0  0  0  0  0  4           0  0  0
   -0.5415   -0.0000    1.3968 C   0  0  0  0  0  4           0  0  0
   -2.1078   -0.8473    3.0535 C   0  0  0  0  0  4           0  0  0
   -0.5301    0.8773    3.6628 C   0  0  0  0  0  4           0  0  0
   -4.9531    0.1808    9.0231 C   0  0  0  0  0  4           0  0  0
   -2.4101   -0.6578    8.2277 C   0  0  0  0  0  4           0  0  0
   -1.5944   -0.8528    1.7534 C   0  0  0  0  0  4           0  0  0
   -0.0190    0.8692    2.3627 C   0  0  0  0  0  4           0  0  0
   -3.9406    0.0285    9.9693 C   0  0  0  0  0  4           0  0  0
   -2.6737   -0.3937    9.5731 C   0  0  0  0  0  4           0  0  0
   -5.8410    0.0539    6.7554 C   0  0  0  0  0  4           0  0  0
    1.5787   -2.9999   -1.4621 C   0  0  0  0  0  4           0  0  0
   -3.0796   -0.7191    5.8372 C   0  0  0  0  0  4           0  0  0
    1.6560   -4.9594   -2.7865 C   0  0  0  0  0  4           0  0  0
    0.0000    0.0000    0.0000 C   0  0  0  0  0  4           0  0  0
    1.7724    2.5193    0.0302 C   0  0  0  0  0  4           0  0  0
    1.7845   -2.5190   -0.0479 C   0  0  0  0  0  4           0  0  0
    2.5020    3.4110   -0.9696 C   0  0  0  0  0  4           0  0  0
    2.0357    4.8675   -0.9821 C   0  0  0  0  0  4           0  0  0
    2.7868    5.7231   -1.9914 C   0  0  0  0  0  4           0  0  0
  1 10  1  0     0  0
  2 25  2  0     0  0
  3 26  2  0     0  0
  4 27  2  0     0  0
  5 26  1  0     0  0
  5 28  1  0     0  0
  6 25  1  0     0  0
  7 11  1  0     0  0
  7 12  1  0     0  0
  7 29  1  0     0  0
  8 10  1  0     0  0
  8 11  2  0     0  0
  9 13  1  0     0  0
  9 27  1  0     0  0
 10 12  2  0     0  0
 11 30  1  0     0  0
 12 31  1  0     0  0
 13 17  2  0     0  0
 13 18  1  0     0  0
 14 15  1  0     0  0
 14 19  2  0     0  0
 14 25  1  0     0  0
 15 20  2  0     0  0
 15 27  1  0     0  0
 16 21  2  0     0  0
 16 22  1  0     0  0
 16 29  1  0     0  0
 17 21  1  0     0  0
 18 22  2  0     0  0
 19 23  1  0     0  0
 20 24  1  0     0  0
 23 24  2  0     0  0
 26 31  1  0     0  0
 30 32  1  0     0  0
 32 33  1  0     0  0
 33 34  1  0     0  0
M  END
> <standard_type>
pIC50

> <# Confs.>
25

> <canonical_smiles>
ClC(N=C1CCCC)=C(CC(OC)=O)N1CC2=CC=C(NC(C3=CC=CC=C3C(O)=O)=O)C=C2

> <standard_relation>
=

> <Publication_ID>
nan

> <predicted_activity_value>
5.468521082957745

> <actual_activity_value>
6.853871964321762

> <Compound>
9

> <standard_units>
nM

> hash
16389122266415346093

$$$$
9_
XXILIB    08252103503D 0   0.00000     0.00000

 34 36  0     1  0            999 V2000
    5.0080   -1.4815   -0.1021 Cl  0  0  0  0  0  1           0  0  0
   -3.4772   -3.3695    6.7248 O   0  0  0  0  0  2           0  0  0
    1.2658   -2.3011   -2.4169 O   0  0  0  0  0  2           0  0  0
   -0.7833   -1.5797    6.3267 O   0  0  0  0  0  2           0  0  0
    1.8058   -4.3462   -1.5016 O   0  0  0  0  0  2           0  0  0
   -2.5820   -3.8194    8.7723 O   0  0  0  0  0  2           0  0  0
    1.4519    0.0000   -0.0000 N   0  0  0  0  0  3           0  0  0
    3.5357    0.7699   -0.0300 N   0  0  0  0  0  3           0  0  0
   -2.1254    0.0120    5.3110 N   0  0  0  0  0  3           0  0  0
    3.5498   -0.5999   -0.0532 C   0  0  0  0  0  4           0  0  0
    2.2647    1.1169    0.0000 C   0  0  0  0  0  4           0  0  0
    2.2666   -1.1149   -0.0368 C   0  0  0  0  0  4           0  0  0
   -1.5762   -0.0184    4.0146 C   0  0  0  0  0  4           0  0  0
   -3.1113   -1.6078    8.2892 C   0  0  0  0  0  4           0  0  0
   -2.4224   -0.5618    7.6511 C   0  0  0  0  0  4           0  0  0
   -0.5415    0.0000    1.3968 C   0  0  0  0  0  4           0  0  0
   -0.5145   -0.8615    3.6712 C   0  0  0  0  0  4           0  0  0
   -2.1218    0.8297    3.0457 C   0  0  0  0  0  4           0  0  0
   -3.8568   -1.3565    9.4481 C   0  0  0  0  0  4           0  0  0
   -2.4746    0.7270    8.2027 C   0  0  0  0  0  4           0  0  0
   -0.0042   -0.8528    2.3700 C   0  0  0  0  0  4           0  0  0
   -1.6092    0.8363    1.7462 C   0  0  0  0  0  4           0  0  0
   -3.9014   -0.0705    9.9845 C   0  0  0  0  0  4           0  0  0
   -3.2087    0.9675    9.3657 C   0  0  0  0  0  4           0  0  0
   -3.0903   -3.0042    7.8218 C   0  0  0  0  0  4           0  0  0
    1.5787   -2.9999   -1.4621 C   0  0  0  0  0  4           0  0  0
   -1.6993   -0.7613    6.3724 C   0  0  0  0  0  4           0  0  0
    1.6560   -4.9594   -2.7865 C   0  0  0  0  0  4           0  0  0
    0.0000    0.0000    0.0000 C   0  0  0  0  0  4           0  0  0
    1.7724    2.5193    0.0302 C   0  0  0  0  0  4           0  0  0
    1.7845   -2.5190   -0.0479 C   0  0  0  0  0  4           0  0  0
    1.6088    3.0452    1.4528 C   0  0  0  0  0  4           0  0  0
    1.1039    4.4859    1.5447 C   0  0  0  0  0  4           0  0  0
    0.9542    4.9727    2.9785 C   0  0  0  0  0  4           0  0  0
  1 10  1  0     0  0
  2 25  2  0     0  0
  3 26  2  0     0  0
  4 27  2  0     0  0
  5 26  1  0     0  0
  5 28  1  0     0  0
  6 25  1  0     0  0
  7 11  1  0     0  0
  7 12  1  0     0  0
  7 29  1  0     0  0
  8 10  1  0     0  0
  8 11  2  0     0  0
  9 13  1  0     0  0
  9 27  1  0     0  0
 10 12  2  0     0  0
 11 30  1  0     0  0
 12 31  1  0     0  0
 13 17  2  0     0  0
 13 18  1  0     0  0
 14 15  1  0     0  0
 14 19  2  0     0  0
 14 25  1  0     0  0
 15 20  2  0     0  0
 15 27  1  0     0  0
 16 21  2  0     0  0
 16 22  1  0     0  0
 16 29  1  0     0  0
 17 21  1  0     0  0
 18 22  2  0     0  0
 19 23  1  0     0  0
 20 24  1  0     0  0
 23 24  2  0     0  0
 26 31  1  0     0  0
 30 32  1  0     0  0
 32 33  1  0     0  0
 33 34  1  0     0  0
M  END
> <standard_type>
pIC50

> <# Confs.>
25

> <canonical_smiles>
ClC(N=C1CCCC)=C(CC(OC)=O)N1CC2=CC=C(NC(C3=CC=CC=C3C(O)=O)=O)C=C2

> <standard_relation>
=

> <Publication_ID>
nan

> <predicted_activity_value>
5.468521082957745

> <actual_activity_value>
6.853871964321762

> <Compound>
9

> <standard_units>
nM

> hash
16389122266415346093

$$$$
7_
XXILIB    08252103503D 0   0.00000     0.00000

 33 35  0     1  0            999 V2000
    5.0019    1.4987   -0.0650 Cl  0  0  0  0  0  1           0  0  0
   -3.6952   -3.1114    4.7631 S   0  0  1  0  0  6           0  0  0
   -3.7143   -5.0622    6.4763 F   0  0  0  0  0  1           0  0  0
   -5.6807   -4.4073    5.7991 F   0  0  0  0  0  1           0  0  0
   -4.5552   -3.1871    7.2136 F   0  0  0  0  0  1           0  0  0
   -4.5494   -1.9763    4.4699 O   0  0  0  0  0  2           0  0  0
   -3.3740   -4.0835    3.7365 O   0  0  0  0  0  2           0  0  0
    1.6114    2.9030   -1.4027 O   0  0  0  0  0  2           0  0  0
    1.4522    0.0000    0.0000 N   0  0  0  0  0  3           0  0  0
    3.5396   -0.7595   -0.0143 N   0  0  0  0  0  3           0  0  0
   -2.2525   -2.5272    5.5073 N   0  0  0  0  0  3           0  0  0
    3.5478    0.6103   -0.0330 C   0  0  0  0  0  4           0  0  0
    2.2701   -1.1133    0.0000 C   0  0  0  0  0  4           0  0  0
    2.2624    1.1179   -0.0275 C   0  0  0  0  0  4           0  0  0
   -2.3624   -1.2313    6.1242 C   0  0  0  0  0  4           0  0  0
   -2.0954   -0.0431    5.4059 C   0  0  0  0  0  4           0  0  0
   -1.5631   -0.0295    4.0341 C   0  0  0  0  0  4           0  0  0
   -0.5411   -0.0000    1.3972 C   0  0  0  0  0  4           0  0  0
   -2.8605   -1.1856    7.4358 C   0  0  0  0  0  4           0  0  0
   -2.3388    1.1781    6.0681 C   0  0  0  0  0  4           0  0  0
   -0.1801   -0.0118    3.8002 C   0  0  0  0  0  4           0  0  0
   -2.4272   -0.0384    2.9290 C   0  0  0  0  0  4           0  0  0
    0.3251    0.0000    2.4971 C   0  0  0  0  0  4           0  0  0
   -1.9221   -0.0261    1.6260 C   0  0  0  0  0  4           0  0  0
   -3.0826    0.0371    8.0624 C   0  0  0  0  0  4           0  0  0
   -2.8224    1.2185    7.3786 C   0  0  0  0  0  4           0  0  0
   -4.4368   -3.9741    6.1169 C   0  0  2  0  0  4           0  0  0
    1.7716    2.5121   -0.0456 C   0  0  0  0  0  4           0  0  0
    0.0000    0.0000   -0.0000 C   0  0  0  0  0  4           0  0  0
    1.7869   -2.5212    0.0145 C   0  0  0  0  0  4           0  0  0
    1.5851   -3.0797   -1.3912 C   0  0  0  0  0  4           0  0  0
    1.0886   -4.5256   -1.4255 C   0  0  0  0  0  4           0  0  0
    0.8969   -5.0545   -2.8390 C   0  0  0  0  0  4           0  0  0
  1 12  1  0     0  0
  2  6  2  0     0  0
  2  7  2  0     0  0
  2 11  1  0     0  0
  2 27  1  0     0  0
  3 27  1  0     0  0
  4 27  1  0     0  0
  5 27  1  0     0  0
  8 28  1  0     0  0
  9 13  1  0     0  0
  9 14  1  0     0  0
  9 29  1  0     0  0
 10 12  1  0     0  0
 10 13  2  0     0  0
 11 15  1  0     0  0
 12 14  2  0     0  0
 13 30  1  0     0  0
 14 28  1  0     0  0
 15 16  1  0     0  0
 15 19  2  0     0  0
 16 17  1  0     0  0
 16 20  2  0     0  0
 17 21  2  0     0  0
 17 22  1  0     0  0
 18 23  2  0     0  0
 18 24  1  0     0  0
 18 29  1  0     0  0
 19 25  1  0     0  0
 20 26  1  0     0  0
 21 23  1  0     0  0
 22 24  2  0     0  0
 25 26  2  0     0  0
 30 31  1  0     0  0
 31 32  1  0     0  0
 32 33  1  0     0  0
M  END
> <standard_type>
pIC50

> <# Confs.>
25

> <canonical_smiles>
ClC(N=C1CCCC)=C(CO)N1CC2=CC=C(C3=CC=CC=C3NS(=O)(C(F)(F)F)=O)C=C2

> <standard_relation>
=

> <Publication_ID>
nan

> <predicted_activity_value>
7.022276394711152

> <actual_activity_value>
7.080921907623926

> <Compound>
7

> <standard_units>
nM

> hash
11133345014010873493

$$$$
7_
XXILIB    08252103503D 0   0.00000     0.00000

 33 35  0     1  0            999 V2000
    5.0019    1.4987   -0.0650 Cl  0  0  0  0  0  1           0  0  0
   -1.6191    3.4432    5.3302 S   0  0  1  0  0  6           0  0  0
   -3.0482    3.7847    7.4707 F   0  0  0  0  0  1           0  0  0
   -2.5143    5.6156    6.4139 F   0  0  0  0  0  1           0  0  0
   -1.0123    4.5635    7.5944 F   0  0  0  0  0  1           0  0  0
   -0.5670    4.1780    4.6539 O   0  0  0  0  0  2           0  0  0
   -2.8395    3.0844    4.6342 O   0  0  0  0  0  2           0  0  0
    1.6114    2.9030   -1.4027 O   0  0  0  0  0  2           0  0  0
    1.4522    0.0000    0.0000 N   0  0  0  0  0  3           0  0  0
    3.5396   -0.7595   -0.0143 N   0  0  0  0  0  3           0  0  0
   -0.9196    2.0504    6.0697 N   0  0  0  0  0  3           0  0  0
    3.5478    0.6103   -0.0330 C   0  0  0  0  0  4           0  0  0
    2.2701   -1.1133    0.0000 C   0  0  0  0  0  4           0  0  0
    2.2624    1.1179   -0.0275 C   0  0  0  0  0  4           0  0  0
   -1.8383    0.9781    6.3494 C   0  0  0  0  0  4           0  0  0
   -2.0954   -0.0431    5.4059 C   0  0  0  0  0  4           0  0  0
   -1.5631   -0.0295    4.0341 C   0  0  0  0  0  4           0  0  0
   -0.5411    0.0000    1.3972 C   0  0  0  0  0  4           0  0  0
   -2.3810    0.9196    7.6426 C   0  0  0  0  0  4           0  0  0
   -2.9254   -1.1061    5.8179 C   0  0  0  0  0  4           0  0  0
   -0.1801   -0.0118    3.8002 C   0  0  0  0  0  4           0  0  0
   -2.4272   -0.0384    2.9290 C   0  0  0  0  0  4           0  0  0
    0.3251   -0.0000    2.4971 C   0  0  0  0  0  4           0  0  0
   -1.9221   -0.0261    1.6260 C   0  0  0  0  0  4           0  0  0
   -3.2024   -0.1407    8.0141 C   0  0  0  0  0  4           0  0  0
   -3.4741   -1.1534    7.1023 C   0  0  0  0  0  4           0  0  0
   -2.0642    4.3851    6.7591 C   0  0  2  0  0  4           0  0  0
    1.7716    2.5121   -0.0456 C   0  0  0  0  0  4           0  0  0
    0.0000    0.0000    0.0000 C   0  0  0  0  0  4           0  0  0
    1.7869   -2.5212    0.0145 C   0  0  0  0  0  4           0  0  0
    1.5851   -3.0797   -1.3912 C   0  0  0  0  0  4           0  0  0
    1.0886   -4.5256   -1.4255 C   0  0  0  0  0  4           0  0  0
    0.8969   -5.0545   -2.8390 C   0  0  0  0  0  4           0  0  0
  1 12  1  0     0  0
  2  6  2  0     0  0
  2  7  2  0     0  0
  2 11  1  0     0  0
  2 27  1  0     0  0
  3 27  1  0     0  0
  4 27  1  0     0  0
  5 27  1  0     0  0
  8 28  1  0     0  0
  9 13  1  0     0  0
  9 14  1  0     0  0
  9 29  1  0     0  0
 10 12  1  0     0  0
 10 13  2  0     0  0
 11 15  1  0     0  0
 12 14  2  0     0  0
 13 30  1  0     0  0
 14 28  1  0     0  0
 15 16  1  0     0  0
 15 19  2  0     0  0
 16 17  1  0     0  0
 16 20  2  0     0  0
 17 21  2  0     0  0
 17 22  1  0     0  0
 18 23  2  0     0  0
 18 24  1  0     0  0
 18 29  1  0     0  0
 19 25  1  0     0  0
 20 26  1  0     0  0
 21 23  1  0     0  0
 22 24  2  0     0  0
 25 26  2  0     0  0
 30 31  1  0     0  0
 31 32  1  0     0  0
 32 33  1  0     0  0
M  END
> <standard_type>
pIC50

> <# Confs.>
25

> <canonical_smiles>
ClC(N=C1CCCC)=C(CO)N1CC2=CC=C(C3=CC=CC=C3NS(=O)(C(F)(F)F)=O)C=C2

> <standard_relation>
=

> <Publication_ID>
nan

> <predicted_activity_value>
7.022276394711152

> <actual_activity_value>
7.080921907623926

> <Compound>
7

> <standard_units>
nM

> hash
11133345014010873493

$$$$
7_
XXILIB    08252103503D 0   0.00000     0.00000

 33 35  0     1  0            999 V2000
    5.0019    1.4987   -0.0650 Cl  0  0  0  0  0  1           0  0  0
   -3.6952   -3.1114    4.7631 S   0  0  1  0  0  6           0  0  0
   -3.7143   -5.0622    6.4763 F   0  0  0  0  0  1           0  0  0
   -5.6807   -4.4073    5.7991 F   0  0  0  0  0  1           0  0  0
   -4.5552   -3.1871    7.2136 F   0  0  0  0  0  1           0  0  0
   -4.5494   -1.9763    4.4699 O   0  0  0  0  0  2           0  0  0
   -3.3740   -4.0835    3.7365 O   0  0  0  0  0  2           0  0  0
    1.6114    2.9030   -1.4027 O   0  0  0  0  0  2           0  0  0
    1.4522    0.0000    0.0000 N   0  0  0  0  0  3           0  0  0
    3.5396   -0.7595   -0.0143 N   0  0  0  0  0  3           0  0  0
   -2.2525   -2.5272    5.5073 N   0  0  0  0  0  3           0  0  0
    3.5478    0.6103   -0.0330 C   0  0  0  0  0  4           0  0  0
    2.2701   -1.1133    0.0000 C   0  0  0  0  0  4           0  0  0
    2.2624    1.1179   -0.0275 C   0  0  0  0  0  4           0  0  0
   -2.3624   -1.2313    6.1242 C   0  0  0  0  0  4           0  0  0
   -2.0954   -0.0431    5.4059 C   0  0  0  0  0  4           0  0  0
   -1.5631   -0.0295    4.0341 C   0  0  0  0  0  4           0  0  0
   -0.5411   -0.0000    1.3972 C   0  0  0  0  0  4           0  0  0
   -2.8605   -1.1856    7.4358 C   0  0  0  0  0  4           0  0  0
   -2.3388    1.1781    6.0681 C   0  0  0  0  0  4           0  0  0
   -0.1801   -0.0118    3.8002 C   0  0  0  0  0  4           0  0  0
   -2.4272   -0.0384    2.9290 C   0  0  0  0  0  4           0  0  0
    0.3251    0.0000    2.4971 C   0  0  0  0  0  4           0  0  0
   -1.9221   -0.0261    1.6260 C   0  0  0  0  0  4           0  0  0
   -3.0826    0.0371    8.0624 C   0  0  0  0  0  4           0  0  0
   -2.8224    1.2185    7.3786 C   0  0  0  0  0  4           0  0  0
   -4.4368   -3.9741    6.1169 C   0  0  2  0  0  4           0  0  0
    1.7716    2.5121   -0.0456 C   0  0  0  0  0  4           0  0  0
    0.0000    0.0000   -0.0000 C   0  0  0  0  0  4           0  0  0
    1.7869   -2.5212    0.0145 C   0  0  0  0  0  4           0  0  0
    1.5851   -3.0797   -1.3912 C   0  0  0  0  0  4           0  0  0
    2.8517   -3.0929   -2.2478 C   0  0  0  0  0  4           0  0  0
    2.6199   -3.6545   -3.6425 C   0  0  0  0  0  4           0  0  0
  1 12  1  0     0  0
  2  6  2  0     0  0
  2  7  2  0     0  0
  2 11  1  0     0  0
  2 27  1  0     0  0
  3 27  1  0     0  0
  4 27  1  0     0  0
  5 27  1  0     0  0
  8 28  1  0     0  0
  9 13  1  0     0  0
  9 14  1  0     0  0
  9 29  1  0     0  0
 10 12  1  0     0  0
 10 13  2  0     0  0
 11 15  1  0     0  0
 12 14  2  0     0  0
 13 30  1  0     0  0
 14 28  1  0     0  0
 15 16  1  0     0  0
 15 19  2  0     0  0
 16 17  1  0     0  0
 16 20  2  0     0  0
 17 21  2  0     0  0
 17 22  1  0     0  0
 18 23  2  0     0  0
 18 24  1  0     0  0
 18 29  1  0     0  0
 19 25  1  0     0  0
 20 26  1  0     0  0
 21 23  1  0     0  0
 22 24  2  0     0  0
 25 26  2  0     0  0
 30 31  1  0     0  0
 31 32  1  0     0  0
 32 33  1  0     0  0
M  END
> <standard_type>
pIC50

> <# Confs.>
25

> <canonical_smiles>
ClC(N=C1CCCC)=C(CO)N1CC2=CC=C(C3=CC=CC=C3NS(=O)(C(F)(F)F)=O)C=C2

> <standard_relation>
=

> <Publication_ID>
nan

> <predicted_activity_value>
7.022276394711152

> <actual_activity_value>
7.080921907623926

> <Compound>
7

> <standard_units>
nM

> hash
11133345014010873493

$$$$
7_
XXILIB    08252103503D 0   0.00000     0.00000

 33 35  0     1  0            999 V2000
    5.0019    1.4987   -0.0650 Cl  0  0  0  0  0  1           0  0  0
   -0.5013    3.0251    6.0630 S   0  0  1  0  0  6           0  0  0
   -1.6556    4.9461    7.3737 F   0  0  0  0  0  1           0  0  0
    0.2572    4.2899    8.1891 F   0  0  0  0  0  1           0  0  0
   -1.5196    3.0532    8.4530 F   0  0  0  0  0  1           0  0  0
    0.3347    1.8895    6.4034 O   0  0  0  0  0  2           0  0  0
   -0.0524    4.0168    5.1052 O   0  0  0  0  0  2           0  0  0
    1.6114    2.9030   -1.4027 O   0  0  0  0  0  2           0  0  0
    1.4522    0.0000    0.0000 N   0  0  0  0  0  3           0  0  0
    3.5396   -0.7595   -0.0143 N   0  0  0  0  0  3           0  0  0
   -2.0644    2.4378    5.6292 N   0  0  0  0  0  3           0  0  0
    3.5478    0.6103   -0.0330 C   0  0  0  0  0  4           0  0  0
    2.2701   -1.1133    0.0000 C   0  0  0  0  0  4           0  0  0
    2.2624    1.1179   -0.0275 C   0  0  0  0  0  4           0  0  0
   -2.3907    1.1309    6.1365 C   0  0  0  0  0  4           0  0  0
   -2.0954   -0.0431    5.4059 C   0  0  0  0  0  4           0  0  0
   -1.5631   -0.0295    4.0341 C   0  0  0  0  0  4           0  0  0
   -0.5411    0.0000    1.3972 C   0  0  0  0  0  4           0  0  0
   -2.9073    1.0594    7.4397 C   0  0  0  0  0  4           0  0  0
   -2.3542   -1.2769    6.0379 C   0  0  0  0  0  4           0  0  0
   -0.1801   -0.0118    3.8002 C   0  0  0  0  0  4           0  0  0
   -2.4272   -0.0384    2.9290 C   0  0  0  0  0  4           0  0  0
    0.3251   -0.0000    2.4971 C   0  0  0  0  0  4           0  0  0
   -1.9221   -0.0261    1.6260 C   0  0  0  0  0  4           0  0  0
   -3.1578   -0.1753    8.0311 C   0  0  0  0  0  4           0  0  0
   -2.8809   -1.3430    7.3307 C   0  0  0  0  0  4           0  0  0
   -0.8725    3.8596    7.5772 C   0  0  2  0  0  4           0  0  0
    1.7716    2.5121   -0.0456 C   0  0  0  0  0  4           0  0  0
    0.0000    0.0000    0.0000 C   0  0  0  0  0  4           0  0  0
    1.7869   -2.5212    0.0145 C   0  0  0  0  0  4           0  0  0
    1.5851   -3.0797   -1.3912 C   0  0  0  0  0  4           0  0  0
    1.0886   -4.5256   -1.4255 C   0  0  0  0  0  4           0  0  0
    0.8969   -5.0545   -2.8390 C   0  0  0  0  0  4           0  0  0
  1 12  1  0     0  0
  2  6  2  0     0  0
  2  7  2  0     0  0
  2 11  1  0     0  0
  2 27  1  0     0  0
  3 27  1  0     0  0
  4 27  1  0     0  0
  5 27  1  0     0  0
  8 28  1  0     0  0
  9 13  1  0     0  0
  9 14  1  0     0  0
  9 29  1  0     0  0
 10 12  1  0     0  0
 10 13  2  0     0  0
 11 15  1  0     0  0
 12 14  2  0     0  0
 13 30  1  0     0  0
 14 28  1  0     0  0
 15 16  1  0     0  0
 15 19  2  0     0  0
 16 17  1  0     0  0
 16 20  2  0     0  0
 17 21  2  0     0  0
 17 22  1  0     0  0
 18 23  2  0     0  0
 18 24  1  0     0  0
 18 29  1  0     0  0
 19 25  1  0     0  0
 20 26  1  0     0  0
 21 23  1  0     0  0
 22 24  2  0     0  0
 25 26  2  0     0  0
 30 31  1  0     0  0
 31 32  1  0     0  0
 32 33  1  0     0  0
M  END
> <standard_type>
pIC50

> <# Confs.>
25

> <canonical_smiles>
ClC(N=C1CCCC)=C(CO)N1CC2=CC=C(C3=CC=CC=C3NS(=O)(C(F)(F)F)=O)C=C2

> <standard_relation>
=

> <Publication_ID>
nan

> <predicted_activity_value>
7.022276394711152

> <actual_activity_value>
7.080921907623926

> <Compound>
7

> <standard_units>
nM

> hash
11133345014010873493

$$$$
7_
XXILIB    08252103503D 0   0.00000     0.00000

 33 35  0     1  0            999 V2000
    5.0019    1.4987   -0.0650 Cl  0  0  0  0  0  1           0  0  0
   -1.6191    3.4432    5.3302 S   0  0  1  0  0  6           0  0  0
   -3.0482    3.7847    7.4707 F   0  0  0  0  0  1           0  0  0
   -2.5143    5.6156    6.4139 F   0  0  0  0  0  1           0  0  0
   -1.0123    4.5635    7.5944 F   0  0  0  0  0  1           0  0  0
   -0.5670    4.1780    4.6539 O   0  0  0  0  0  2           0  0  0
   -2.8395    3.0844    4.6342 O   0  0  0  0  0  2           0  0  0
    1.6114    2.9030   -1.4027 O   0  0  0  0  0  2           0  0  0
    1.4522    0.0000    0.0000 N   0  0  0  0  0  3           0  0  0
    3.5396   -0.7595   -0.0143 N   0  0  0  0  0  3           0  0  0
   -0.9196    2.0504    6.0697 N   0  0  0  0  0  3           0  0  0
    3.5478    0.6103   -0.0330 C   0  0  0  0  0  4           0  0  0
    2.2701   -1.1133    0.0000 C   0  0  0  0  0  4           0  0  0
    2.2624    1.1179   -0.0275 C   0  0  0  0  0  4           0  0  0
   -1.8383    0.9781    6.3494 C   0  0  0  0  0  4           0  0  0
   -2.0954   -0.0431    5.4059 C   0  0  0  0  0  4           0  0  0
   -1.5631   -0.0295    4.0341 C   0  0  0  0  0  4           0  0  0
   -0.5411    0.0000    1.3972 C   0  0  0  0  0  4           0  0  0
   -2.3810    0.9196    7.6426 C   0  0  0  0  0  4           0  0  0
   -2.9254   -1.1061    5.8179 C   0  0  0  0  0  4           0  0  0
   -0.1801   -0.0118    3.8002 C   0  0  0  0  0  4           0  0  0
   -2.4272   -0.0384    2.9290 C   0  0  0  0  0  4           0  0  0
    0.3251   -0.0000    2.4971 C   0  0  0  0  0  4           0  0  0
   -1.9221   -0.0261    1.6260 C   0  0  0  0  0  4           0  0  0
   -3.2024   -0.1407    8.0141 C   0  0  0  0  0  4           0  0  0
   -3.4741   -1.1534    7.1023 C   0  0  0  0  0  4           0  0  0
   -2.0642    4.3851    6.7591 C   0  0  2  0  0  4           0  0  0
    1.7716    2.5121   -0.0456 C   0  0  0  0  0  4           0  0  0
    0.0000    0.0000    0.0000 C   0  0  0  0  0  4           0  0  0
    1.7869   -2.5212    0.0145 C   0  0  0  0  0  4           0  0  0
    1.5851   -3.0797   -1.3912 C   0  0  0  0  0  4           0  0  0
    2.8517   -3.0929   -2.2478 C   0  0  0  0  0  4           0  0  0
    2.6199   -3.6545   -3.6425 C   0  0  0  0  0  4           0  0  0
  1 12  1  0     0  0
  2  6  2  0     0  0
  2  7  2  0     0  0
  2 11  1  0     0  0
  2 27  1  0     0  0
  3 27  1  0     0  0
  4 27  1  0     0  0
  5 27  1  0     0  0
  8 28  1  0     0  0
  9 13  1  0     0  0
  9 14  1  0     0  0
  9 29  1  0     0  0
 10 12  1  0     0  0
 10 13  2  0     0  0
 11 15  1  0     0  0
 12 14  2  0     0  0
 13 30  1  0     0  0
 14 28  1  0     0  0
 15 16  1  0     0  0
 15 19  2  0     0  0
 16 17  1  0     0  0
 16 20  2  0     0  0
 17 21  2  0     0  0
 17 22  1  0     0  0
 18 23  2  0     0  0
 18 24  1  0     0  0
 18 29  1  0     0  0
 19 25  1  0     0  0
 20 26  1  0     0  0
 21 23  1  0     0  0
 22 24  2  0     0  0
 25 26  2  0     0  0
 30 31  1  0     0  0
 31 32  1  0     0  0
 32 33  1  0     0  0
M  END
> <standard_type>
pIC50

> <# Confs.>
25

> <canonical_smiles>
ClC(N=C1CCCC)=C(CO)N1CC2=CC=C(C3=CC=CC=C3NS(=O)(C(F)(F)F)=O)C=C2

> <standard_relation>
=

> <Publication_ID>
nan

> <predicted_activity_value>
7.022276394711152

> <actual_activity_value>
7.080921907623926

> <Compound>
7

> <standard_units>
nM

> hash
11133345014010873493

$$$$
7_
XXILIB    08252103503D 0   0.00000     0.00000

 33 35  0     1  0            999 V2000
    5.0019    1.4987   -0.0650 Cl  0  0  0  0  0  1           0  0  0
   -3.6952   -3.1114    4.7631 S   0  0  1  0  0  6           0  0  0
   -3.7143   -5.0622    6.4763 F   0  0  0  0  0  1           0  0  0
   -5.6807   -4.4073    5.7991 F   0  0  0  0  0  1           0  0  0
   -4.5552   -3.1871    7.2136 F   0  0  0  0  0  1           0  0  0
   -4.5494   -1.9763    4.4699 O   0  0  0  0  0  2           0  0  0
   -3.3740   -4.0835    3.7365 O   0  0  0  0  0  2           0  0  0
    1.6114    2.9030   -1.4027 O   0  0  0  0  0  2           0  0  0
    1.4522    0.0000    0.0000 N   0  0  0  0  0  3           0  0  0
    3.5396   -0.7595   -0.0143 N   0  0  0  0  0  3           0  0  0
   -2.2525   -2.5272    5.5073 N   0  0  0  0  0  3           0  0  0
    3.5478    0.6103   -0.0330 C   0  0  0  0  0  4           0  0  0
    2.2701   -1.1133    0.0000 C   0  0  0  0  0  4           0  0  0
    2.2624    1.1179   -0.0275 C   0  0  0  0  0  4           0  0  0
   -2.3624   -1.2313    6.1242 C   0  0  0  0  0  4           0  0  0
   -2.0954   -0.0431    5.4059 C   0  0  0  0  0  4           0  0  0
   -1.5631   -0.0295    4.0341 C   0  0  0  0  0  4           0  0  0
   -0.5411   -0.0000    1.3972 C   0  0  0  0  0  4           0  0  0
   -2.8605   -1.1856    7.4358 C   0  0  0  0  0  4           0  0  0
   -2.3388    1.1781    6.0681 C   0  0  0  0  0  4           0  0  0
   -0.1801   -0.0118    3.8002 C   0  0  0  0  0  4           0  0  0
   -2.4272   -0.0384    2.9290 C   0  0  0  0  0  4           0  0  0
    0.3251    0.0000    2.4971 C   0  0  0  0  0  4           0  0  0
   -1.9221   -0.0261    1.6260 C   0  0  0  0  0  4           0  0  0
   -3.0826    0.0371    8.0624 C   0  0  0  0  0  4           0  0  0
   -2.8224    1.2185    7.3786 C   0  0  0  0  0  4           0  0  0
   -4.4368   -3.9741    6.1169 C   0  0  2  0  0  4           0  0  0
    1.7716    2.5121   -0.0456 C   0  0  0  0  0  4           0  0  0
    0.0000    0.0000   -0.0000 C   0  0  0  0  0  4           0  0  0
    1.7869   -2.5212    0.0145 C   0  0  0  0  0  4           0  0  0
    2.5522   -3.3868    1.0114 C   0  0  0  0  0  4           0  0  0
    2.4551   -2.9082    2.4605 C   0  0  0  0  0  4           0  0  0
    3.2272   -3.7899    3.4304 C   0  0  0  0  0  4           0  0  0
  1 12  1  0     0  0
  2  6  2  0     0  0
  2  7  2  0     0  0
  2 11  1  0     0  0
  2 27  1  0     0  0
  3 27  1  0     0  0
  4 27  1  0     0  0
  5 27  1  0     0  0
  8 28  1  0     0  0
  9 13  1  0     0  0
  9 14  1  0     0  0
  9 29  1  0     0  0
 10 12  1  0     0  0
 10 13  2  0     0  0
 11 15  1  0     0  0
 12 14  2  0     0  0
 13 30  1  0     0  0
 14 28  1  0     0  0
 15 16  1  0     0  0
 15 19  2  0     0  0
 16 17  1  0     0  0
 16 20  2  0     0  0
 17 21  2  0     0  0
 17 22  1  0     0  0
 18 23  2  0     0  0
 18 24  1  0     0  0
 18 29  1  0     0  0
 19 25  1  0     0  0
 20 26  1  0     0  0
 21 23  1  0     0  0
 22 24  2  0     0  0
 25 26  2  0     0  0
 30 31  1  0     0  0
 31 32  1  0     0  0
 32 33  1  0     0  0
M  END
> <standard_type>
pIC50

> <# Confs.>
25

> <canonical_smiles>
ClC(N=C1CCCC)=C(CO)N1CC2=CC=C(C3=CC=CC=C3NS(=O)(C(F)(F)F)=O)C=C2

> <standard_relation>
=

> <Publication_ID>
nan

> <predicted_activity_value>
7.022276394711152

> <actual_activity_value>
7.080921907623926

> <Compound>
7

> <standard_units>
nM

> hash
11133345014010873493

$$$$
7_
XXILIB    08252103503D 0   0.00000     0.00000

 33 35  0     1  0            999 V2000
    5.0019    1.4987   -0.0650 Cl  0  0  0  0  0  1           0  0  0
   -3.6952   -3.1114    4.7631 S   0  0  1  0  0  6           0  0  0
   -3.7143   -5.0622    6.4763 F   0  0  0  0  0  1           0  0  0
   -5.6807   -4.4073    5.7991 F   0  0  0  0  0  1           0  0  0
   -4.5552   -3.1871    7.2136 F   0  0  0  0  0  1           0  0  0
   -4.5494   -1.9763    4.4699 O   0  0  0  0  0  2           0  0  0
   -3.3740   -4.0835    3.7365 O   0  0  0  0  0  2           0  0  0
    1.6114    2.9030   -1.4027 O   0  0  0  0  0  2           0  0  0
    1.4522    0.0000    0.0000 N   0  0  0  0  0  3           0  0  0
    3.5396   -0.7595   -0.0143 N   0  0  0  0  0  3           0  0  0
   -2.2525   -2.5272    5.5073 N   0  0  0  0  0  3           0  0  0
    3.5478    0.6103   -0.0330 C   0  0  0  0  0  4           0  0  0
    2.2701   -1.1133    0.0000 C   0  0  0  0  0  4           0  0  0
    2.2624    1.1179   -0.0275 C   0  0  0  0  0  4           0  0  0
   -2.3624   -1.2313    6.1242 C   0  0  0  0  0  4           0  0  0
   -2.0954   -0.0431    5.4059 C   0  0  0  0  0  4           0  0  0
   -1.5631   -0.0295    4.0341 C   0  0  0  0  0  4           0  0  0
   -0.5411   -0.0000    1.3972 C   0  0  0  0  0  4           0  0  0
   -2.8605   -1.1856    7.4358 C   0  0  0  0  0  4           0  0  0
   -2.3388    1.1781    6.0681 C   0  0  0  0  0  4           0  0  0
   -0.1801   -0.0118    3.8002 C   0  0  0  0  0  4           0  0  0
   -2.4272   -0.0384    2.9290 C   0  0  0  0  0  4           0  0  0
    0.3251    0.0000    2.4971 C   0  0  0  0  0  4           0  0  0
   -1.9221   -0.0261    1.6260 C   0  0  0  0  0  4           0  0  0
   -3.0826    0.0371    8.0624 C   0  0  0  0  0  4           0  0  0
   -2.8224    1.2185    7.3786 C   0  0  0  0  0  4           0  0  0
   -4.4368   -3.9741    6.1169 C   0  0  2  0  0  4           0  0  0
    1.7716    2.5121   -0.0456 C   0  0  0  0  0  4           0  0  0
    0.0000    0.0000   -0.0000 C   0  0  0  0  0  4           0  0  0
    1.7869   -2.5212    0.0145 C   0  0  0  0  0  4           0  0  0
    2.9337   -3.5280    0.0106 C   0  0  0  0  0  4           0  0  0
    2.4841   -4.9895    0.0252 C   0  0  0  0  0  4           0  0  0
    3.6480   -5.9691    0.0209 C   0  0  0  0  0  4           0  0  0
  1 12  1  0     0  0
  2  6  2  0     0  0
  2  7  2  0     0  0
  2 11  1  0     0  0
  2 27  1  0     0  0
  3 27  1  0     0  0
  4 27  1  0     0  0
  5 27  1  0     0  0
  8 28  1  0     0  0
  9 13  1  0     0  0
  9 14  1  0     0  0
  9 29  1  0     0  0
 10 12  1  0     0  0
 10 13  2  0     0  0
 11 15  1  0     0  0
 12 14  2  0     0  0
 13 30  1  0     0  0
 14 28  1  0     0  0
 15 16  1  0     0  0
 15 19  2  0     0  0
 16 17  1  0     0  0
 16 20  2  0     0  0
 17 21  2  0     0  0
 17 22  1  0     0  0
 18 23  2  0     0  0
 18 24  1  0     0  0
 18 29  1  0     0  0
 19 25  1  0     0  0
 20 26  1  0     0  0
 21 23  1  0     0  0
 22 24  2  0     0  0
 25 26  2  0     0  0
 30 31  1  0     0  0
 31 32  1  0     0  0
 32 33  1  0     0  0
M  END
> <standard_type>
pIC50

> <# Confs.>
25

> <canonical_smiles>
ClC(N=C1CCCC)=C(CO)N1CC2=CC=C(C3=CC=CC=C3NS(=O)(C(F)(F)F)=O)C=C2

> <standard_relation>
=

> <Publication_ID>
nan

> <predicted_activity_value>
7.022276394711152

> <actual_activity_value>
7.080921907623926

> <Compound>
7

> <standard_units>
nM

> hash
11133345014010873493

$$$$
7_
XXILIB    08252103503D 0   0.00000     0.00000

 33 35  0     1  0            999 V2000
    5.0019    1.4987   -0.0650 Cl  0  0  0  0  0  1           0  0  0
   -3.2943    3.1848    4.6776 S   0  0  1  0  0  6           0  0  0
   -4.8225    3.1985    6.7764 F   0  0  0  0  0  1           0  0  0
   -5.1508    4.8433    5.3832 F   0  0  0  0  0  1           0  0  0
   -3.3925    4.8450    6.6735 F   0  0  0  0  0  1           0  0  0
   -2.6732    4.1904    3.8367 O   0  0  0  0  0  2           0  0  0
   -4.1708    2.1796    4.1086 O   0  0  0  0  0  2           0  0  0
    1.6114    2.9030   -1.4027 O   0  0  0  0  0  2           0  0  0
    1.4522    0.0000    0.0000 N   0  0  0  0  0  3           0  0  0
    3.5396   -0.7595   -0.0143 N   0  0  0  0  0  3           0  0  0
   -2.0644    2.4378    5.6292 N   0  0  0  0  0  3           0  0  0
    3.5478    0.6103   -0.0330 C   0  0  0  0  0  4           0  0  0
    2.2701   -1.1133    0.0000 C   0  0  0  0  0  4           0  0  0
    2.2624    1.1179   -0.0275 C   0  0  0  0  0  4           0  0  0
   -2.3907    1.1309    6.1365 C   0  0  0  0  0  4           0  0  0
   -2.0954   -0.0431    5.4059 C   0  0  0  0  0  4           0  0  0
   -1.5631   -0.0295    4.0341 C   0  0  0  0  0  4           0  0  0
   -0.5411    0.0000    1.3972 C   0  0  0  0  0  4           0  0  0
   -2.9073    1.0594    7.4397 C   0  0  0  0  0  4           0  0  0
   -2.3542   -1.2769    6.0379 C   0  0  0  0  0  4           0  0  0
   -0.1801   -0.0118    3.8002 C   0  0  0  0  0  4           0  0  0
   -2.4272   -0.0384    2.9290 C   0  0  0  0  0  4           0  0  0
    0.3251   -0.0000    2.4971 C   0  0  0  0  0  4           0  0  0
   -1.9221   -0.0261    1.6260 C   0  0  0  0  0  4           0  0  0
   -3.1578   -0.1753    8.0311 C   0  0  0  0  0  4           0  0  0
   -2.8809   -1.3430    7.3307 C   0  0  0  0  0  4           0  0  0
   -4.1972    4.0497    5.9280 C   0  0  2  0  0  4           0  0  0
    1.7716    2.5121   -0.0456 C   0  0  0  0  0  4           0  0  0
    0.0000    0.0000    0.0000 C   0  0  0  0  0  4           0  0  0
    1.7869   -2.5212    0.0145 C   0  0  0  0  0  4           0  0  0
    1.5851   -3.0797   -1.3912 C   0  0  0  0  0  4           0  0  0
    1.0886   -4.5256   -1.4255 C   0  0  0  0  0  4           0  0  0
    0.8969   -5.0545   -2.8390 C   0  0  0  0  0  4           0  0  0
  1 12  1  0     0  0
  2  6  2  0     0  0
  2  7  2  0     0  0
  2 11  1  0     0  0
  2 27  1  0     0  0
  3 27  1  0     0  0
  4 27  1  0     0  0
  5 27  1  0     0  0
  8 28  1  0     0  0
  9 13  1  0     0  0
  9 14  1  0     0  0
  9 29  1  0     0  0
 10 12  1  0     0  0
 10 13  2  0     0  0
 11 15  1  0     0  0
 12 14  2  0     0  0
 13 30  1  0     0  0
 14 28  1  0     0  0
 15 16  1  0     0  0
 15 19  2  0     0  0
 16 17  1  0     0  0
 16 20  2  0     0  0
 17 21  2  0     0  0
 17 22  1  0     0  0
 18 23  2  0     0  0
 18 24  1  0     0  0
 18 29  1  0     0  0
 19 25  1  0     0  0
 20 26  1  0     0  0
 21 23  1  0     0  0
 22 24  2  0     0  0
 25 26  2  0     0  0
 30 31  1  0     0  0
 31 32  1  0     0  0
 32 33  1  0     0  0
M  END
> <standard_type>
pIC50

> <# Confs.>
25

> <canonical_smiles>
ClC(N=C1CCCC)=C(CO)N1CC2=CC=C(C3=CC=CC=C3NS(=O)(C(F)(F)F)=O)C=C2

> <standard_relation>
=

> <Publication_ID>
nan

> <predicted_activity_value>
7.022276394711152

> <actual_activity_value>
7.080921907623926

> <Compound>
7

> <standard_units>
nM

> hash
11133345014010873493

$$$$
7_
XXILIB    08252103503D 0   0.00000     0.00000

 33 35  0     1  0            999 V2000
    5.0019    1.4987   -0.0650 Cl  0  0  0  0  0  1           0  0  0
   -0.5013    3.0251    6.0630 S   0  0  1  0  0  6           0  0  0
   -1.6556    4.9461    7.3737 F   0  0  0  0  0  1           0  0  0
    0.2572    4.2899    8.1891 F   0  0  0  0  0  1           0  0  0
   -1.5196    3.0532    8.4530 F   0  0  0  0  0  1           0  0  0
    0.3347    1.8895    6.4034 O   0  0  0  0  0  2           0  0  0
   -0.0524    4.0168    5.1052 O   0  0  0  0  0  2           0  0  0
    1.6114    2.9030   -1.4027 O   0  0  0  0  0  2           0  0  0
    1.4522    0.0000    0.0000 N   0  0  0  0  0  3           0  0  0
    3.5396   -0.7595   -0.0143 N   0  0  0  0  0  3           0  0  0
   -2.0644    2.4378    5.6292 N   0  0  0  0  0  3           0  0  0
    3.5478    0.6103   -0.0330 C   0  0  0  0  0  4           0  0  0
    2.2701   -1.1133    0.0000 C   0  0  0  0  0  4           0  0  0
    2.2624    1.1179   -0.0275 C   0  0  0  0  0  4           0  0  0
   -2.3907    1.1309    6.1365 C   0  0  0  0  0  4           0  0  0
   -2.0954   -0.0431    5.4059 C   0  0  0  0  0  4           0  0  0
   -1.5631   -0.0295    4.0341 C   0  0  0  0  0  4           0  0  0
   -0.5411    0.0000    1.3972 C   0  0  0  0  0  4           0  0  0
   -2.9073    1.0594    7.4397 C   0  0  0  0  0  4           0  0  0
   -2.3542   -1.2769    6.0379 C   0  0  0  0  0  4           0  0  0
   -0.1801   -0.0118    3.8002 C   0  0  0  0  0  4           0  0  0
   -2.4272   -0.0384    2.9290 C   0  0  0  0  0  4           0  0  0
    0.3251   -0.0000    2.4971 C   0  0  0  0  0  4           0  0  0
   -1.9221   -0.0261    1.6260 C   0  0  0  0  0  4           0  0  0
   -3.1578   -0.1753    8.0311 C   0  0  0  0  0  4           0  0  0
   -2.8809   -1.3430    7.3307 C   0  0  0  0  0  4           0  0  0
   -0.8725    3.8596    7.5772 C   0  0  2  0  0  4           0  0  0
    1.7716    2.5121   -0.0456 C   0  0  0  0  0  4           0  0  0
    0.0000    0.0000    0.0000 C   0  0  0  0  0  4           0  0  0
    1.7869   -2.5212    0.0145 C   0  0  0  0  0  4           0  0  0
    1.5851   -3.0797   -1.3912 C   0  0  0  0  0  4           0  0  0
    2.8517   -3.0929   -2.2478 C   0  0  0  0  0  4           0  0  0
    2.6199   -3.6545   -3.6425 C   0  0  0  0  0  4           0  0  0
  1 12  1  0     0  0
  2  6  2  0     0  0
  2  7  2  0     0  0
  2 11  1  0     0  0
  2 27  1  0     0  0
  3 27  1  0     0  0
  4 27  1  0     0  0
  5 27  1  0     0  0
  8 28  1  0     0  0
  9 13  1  0     0  0
  9 14  1  0     0  0
  9 29  1  0     0  0
 10 12  1  0     0  0
 10 13  2  0     0  0
 11 15  1  0     0  0
 12 14  2  0     0  0
 13 30  1  0     0  0
 14 28  1  0     0  0
 15 16  1  0     0  0
 15 19  2  0     0  0
 16 17  1  0     0  0
 16 20  2  0     0  0
 17 21  2  0     0  0
 17 22  1  0     0  0
 18 23  2  0     0  0
 18 24  1  0     0  0
 18 29  1  0     0  0
 19 25  1  0     0  0
 20 26  1  0     0  0
 21 23  1  0     0  0
 22 24  2  0     0  0
 25 26  2  0     0  0
 30 31  1  0     0  0
 31 32  1  0     0  0
 32 33  1  0     0  0
M  END
> <standard_type>
pIC50

> <# Confs.>
25

> <canonical_smiles>
ClC(N=C1CCCC)=C(CO)N1CC2=CC=C(C3=CC=CC=C3NS(=O)(C(F)(F)F)=O)C=C2

> <standard_relation>
=

> <Publication_ID>
nan

> <predicted_activity_value>
7.022276394711152

> <actual_activity_value>
7.080921907623926

> <Compound>
7

> <standard_units>
nM

> hash
11133345014010873493

$$$$
7_
XXILIB    08252103503D 0   0.00000     0.00000

 33 35  0     1  0            999 V2000
    5.0019    1.4987   -0.0650 Cl  0  0  0  0  0  1           0  0  0
   -0.6977   -3.2659    5.6217 S   0  0  1  0  0  6           0  0  0
   -0.9850   -3.3257    8.2013 F   0  0  0  0  0  1           0  0  0
    0.2079   -4.9485    7.3663 F   0  0  0  0  0  1           0  0  0
   -1.9604   -4.9607    7.1327 F   0  0  0  0  0  1           0  0  0
   -0.5824   -4.2528    4.5648 O   0  0  0  0  0  2           0  0  0
    0.3264   -2.2569    5.8101 O   0  0  0  0  0  2           0  0  0
    1.6114    2.9030   -1.4027 O   0  0  0  0  0  2           0  0  0
    1.4522    0.0000    0.0000 N   0  0  0  0  0  3           0  0  0
    3.5396   -0.7595   -0.0143 N   0  0  0  0  0  3           0  0  0
   -2.2525   -2.5272    5.5073 N   0  0  0  0  0  3           0  0  0
    3.5478    0.6103   -0.0330 C   0  0  0  0  0  4           0  0  0
    2.2701   -1.1133    0.0000 C   0  0  0  0  0  4           0  0  0
    2.2624    1.1179   -0.0275 C   0  0  0  0  0  4           0  0  0
   -2.3624   -1.2313    6.1242 C   0  0  0  0  0  4           0  0  0
   -2.0954   -0.0431    5.4059 C   0  0  0  0  0  4           0  0  0
   -1.5631   -0.0295    4.0341 C   0  0  0  0  0  4           0  0  0
   -0.5411   -0.0000    1.3972 C   0  0  0  0  0  4           0  0  0
   -2.8605   -1.1856    7.4358 C   0  0  0  0  0  4           0  0  0
   -2.3388    1.1781    6.0681 C   0  0  0  0  0  4           0  0  0
   -0.1801   -0.0118    3.8002 C   0  0  0  0  0  4           0  0  0
   -2.4272   -0.0384    2.9290 C   0  0  0  0  0  4           0  0  0
    0.3251    0.0000    2.4971 C   0  0  0  0  0  4           0  0  0
   -1.9221   -0.0261    1.6260 C   0  0  0  0  0  4           0  0  0
   -3.0826    0.0371    8.0624 C   0  0  0  0  0  4           0  0  0
   -2.8224    1.2185    7.3786 C   0  0  0  0  0  4           0  0  0
   -0.8687   -4.1580    7.1388 C   0  0  2  0  0  4           0  0  0
    1.7716    2.5121   -0.0456 C   0  0  0  0  0  4           0  0  0
    0.0000    0.0000   -0.0000 C   0  0  0  0  0  4           0  0  0
    1.7869   -2.5212    0.0145 C   0  0  0  0  0  4           0  0  0
    2.5522   -3.3868    1.0114 C   0  0  0  0  0  4           0  0  0
    2.4551   -2.9082    2.4605 C   0  0  0  0  0  4           0  0  0
    3.2272   -3.7899    3.4304 C   0  0  0  0  0  4           0  0  0
  1 12  1  0     0  0
  2  6  2  0     0  0
  2  7  2  0     0  0
  2 11  1  0     0  0
  2 27  1  0     0  0
  3 27  1  0     0  0
  4 27  1  0     0  0
  5 27  1  0     0  0
  8 28  1  0     0  0
  9 13  1  0     0  0
  9 14  1  0     0  0
  9 29  1  0     0  0
 10 12  1  0     0  0
 10 13  2  0     0  0
 11 15  1  0     0  0
 12 14  2  0     0  0
 13 30  1  0     0  0
 14 28  1  0     0  0
 15 16  1  0     0  0
 15 19  2  0     0  0
 16 17  1  0     0  0
 16 20  2  0     0  0
 17 21  2  0     0  0
 17 22  1  0     0  0
 18 23  2  0     0  0
 18 24  1  0     0  0
 18 29  1  0     0  0
 19 25  1  0     0  0
 20 26  1  0     0  0
 21 23  1  0     0  0
 22 24  2  0     0  0
 25 26  2  0     0  0
 30 31  1  0     0  0
 31 32  1  0     0  0
 32 33  1  0     0  0
M  END
> <standard_type>
pIC50

> <# Confs.>
25

> <canonical_smiles>
ClC(N=C1CCCC)=C(CO)N1CC2=CC=C(C3=CC=CC=C3NS(=O)(C(F)(F)F)=O)C=C2

> <standard_relation>
=

> <Publication_ID>
nan

> <predicted_activity_value>
7.022276394711152

> <actual_activity_value>
7.080921907623926

> <Compound>
7

> <standard_units>
nM

> hash
11133345014010873493

$$$$
7_
XXILIB    08252103503D 0   0.00000     0.00000

 33 35  0     1  0            999 V2000
    5.0019    1.4987   -0.0650 Cl  0  0  0  0  0  1           0  0  0
   -1.6191    3.4432    5.3302 S   0  0  1  0  0  6           0  0  0
   -3.0482    3.7847    7.4707 F   0  0  0  0  0  1           0  0  0
   -2.5143    5.6156    6.4139 F   0  0  0  0  0  1           0  0  0
   -1.0123    4.5635    7.5944 F   0  0  0  0  0  1           0  0  0
   -0.5670    4.1780    4.6539 O   0  0  0  0  0  2           0  0  0
   -2.8395    3.0844    4.6342 O   0  0  0  0  0  2           0  0  0
    1.6114    2.9030   -1.4027 O   0  0  0  0  0  2           0  0  0
    1.4522    0.0000    0.0000 N   0  0  0  0  0  3           0  0  0
    3.5396   -0.7595   -0.0143 N   0  0  0  0  0  3           0  0  0
   -0.9196    2.0504    6.0697 N   0  0  0  0  0  3           0  0  0
    3.5478    0.6103   -0.0330 C   0  0  0  0  0  4           0  0  0
    2.2701   -1.1133    0.0000 C   0  0  0  0  0  4           0  0  0
    2.2624    1.1179   -0.0275 C   0  0  0  0  0  4           0  0  0
   -1.8383    0.9781    6.3494 C   0  0  0  0  0  4           0  0  0
   -2.0954   -0.0431    5.4059 C   0  0  0  0  0  4           0  0  0
   -1.5631   -0.0295    4.0341 C   0  0  0  0  0  4           0  0  0
   -0.5411    0.0000    1.3972 C   0  0  0  0  0  4           0  0  0
   -2.3810    0.9196    7.6426 C   0  0  0  0  0  4           0  0  0
   -2.9254   -1.1061    5.8179 C   0  0  0  0  0  4           0  0  0
   -0.1801   -0.0118    3.8002 C   0  0  0  0  0  4           0  0  0
   -2.4272   -0.0384    2.9290 C   0  0  0  0  0  4           0  0  0
    0.3251   -0.0000    2.4971 C   0  0  0  0  0  4           0  0  0
   -1.9221   -0.0261    1.6260 C   0  0  0  0  0  4           0  0  0
   -3.2024   -0.1407    8.0141 C   0  0  0  0  0  4           0  0  0
   -3.4741   -1.1534    7.1023 C   0  0  0  0  0  4           0  0  0
   -2.0642    4.3851    6.7591 C   0  0  2  0  0  4           0  0  0
    1.7716    2.5121   -0.0456 C   0  0  0  0  0  4           0  0  0
    0.0000    0.0000    0.0000 C   0  0  0  0  0  4           0  0  0
    1.7869   -2.5212    0.0145 C   0  0  0  0  0  4           0  0  0
    2.9337   -3.5280    0.0106 C   0  0  0  0  0  4           0  0  0
    2.4841   -4.9895    0.0252 C   0  0  0  0  0  4           0  0  0
    3.6480   -5.9691    0.0209 C   0  0  0  0  0  4           0  0  0
  1 12  1  0     0  0
  2  6  2  0     0  0
  2  7  2  0     0  0
  2 11  1  0     0  0
  2 27  1  0     0  0
  3 27  1  0     0  0
  4 27  1  0     0  0
  5 27  1  0     0  0
  8 28  1  0     0  0
  9 13  1  0     0  0
  9 14  1  0     0  0
  9 29  1  0     0  0
 10 12  1  0     0  0
 10 13  2  0     0  0
 11 15  1  0     0  0
 12 14  2  0     0  0
 13 30  1  0     0  0
 14 28  1  0     0  0
 15 16  1  0     0  0
 15 19  2  0     0  0
 16 17  1  0     0  0
 16 20  2  0     0  0
 17 21  2  0     0  0
 17 22  1  0     0  0
 18 23  2  0     0  0
 18 24  1  0     0  0
 18 29  1  0     0  0
 19 25  1  0     0  0
 20 26  1  0     0  0
 21 23  1  0     0  0
 22 24  2  0     0  0
 25 26  2  0     0  0
 30 31  1  0     0  0
 31 32  1  0     0  0
 32 33  1  0     0  0
M  END
> <standard_type>
pIC50

> <# Confs.>
25

> <canonical_smiles>
ClC(N=C1CCCC)=C(CO)N1CC2=CC=C(C3=CC=CC=C3NS(=O)(C(F)(F)F)=O)C=C2

> <standard_relation>
=

> <Publication_ID>
nan

> <predicted_activity_value>
7.022276394711152

> <actual_activity_value>
7.080921907623926

> <Compound>
7

> <standard_units>
nM

> hash
11133345014010873493

$$$$
7_
XXILIB    08252103503D 0   0.00000     0.00000

 33 35  0     1  0            999 V2000
    5.0019    1.4987   -0.0650 Cl  0  0  0  0  0  1           0  0  0
   -1.6191    3.4432    5.3302 S   0  0  1  0  0  6           0  0  0
   -3.0482    3.7847    7.4707 F   0  0  0  0  0  1           0  0  0
   -2.5143    5.6156    6.4139 F   0  0  0  0  0  1           0  0  0
   -1.0123    4.5635    7.5944 F   0  0  0  0  0  1           0  0  0
   -0.5670    4.1780    4.6539 O   0  0  0  0  0  2           0  0  0
   -2.8395    3.0844    4.6342 O   0  0  0  0  0  2           0  0  0
    1.6114    2.9030   -1.4027 O   0  0  0  0  0  2           0  0  0
    1.4522    0.0000    0.0000 N   0  0  0  0  0  3           0  0  0
    3.5396   -0.7595   -0.0143 N   0  0  0  0  0  3           0  0  0
   -0.9196    2.0504    6.0697 N   0  0  0  0  0  3           0  0  0
    3.5478    0.6103   -0.0330 C   0  0  0  0  0  4           0  0  0
    2.2701   -1.1133    0.0000 C   0  0  0  0  0  4           0  0  0
    2.2624    1.1179   -0.0275 C   0  0  0  0  0  4           0  0  0
   -1.8383    0.9781    6.3494 C   0  0  0  0  0  4           0  0  0
   -2.0954   -0.0431    5.4059 C   0  0  0  0  0  4           0  0  0
   -1.5631   -0.0295    4.0341 C   0  0  0  0  0  4           0  0  0
   -0.5411    0.0000    1.3972 C   0  0  0  0  0  4           0  0  0
   -2.3810    0.9196    7.6426 C   0  0  0  0  0  4           0  0  0
   -2.9254   -1.1061    5.8179 C   0  0  0  0  0  4           0  0  0
   -0.1801   -0.0118    3.8002 C   0  0  0  0  0  4           0  0  0
   -2.4272   -0.0384    2.9290 C   0  0  0  0  0  4           0  0  0
    0.3251   -0.0000    2.4971 C   0  0  0  0  0  4           0  0  0
   -1.9221   -0.0261    1.6260 C   0  0  0  0  0  4           0  0  0
   -3.2024   -0.1407    8.0141 C   0  0  0  0  0  4           0  0  0
   -3.4741   -1.1534    7.1023 C   0  0  0  0  0  4           0  0  0
   -2.0642    4.3851    6.7591 C   0  0  2  0  0  4           0  0  0
    1.7716    2.5121   -0.0456 C   0  0  0  0  0  4           0  0  0
    0.0000    0.0000    0.0000 C   0  0  0  0  0  4           0  0  0
    1.7869   -2.5212    0.0145 C   0  0  0  0  0  4           0  0  0
    2.5522   -3.3868    1.0114 C   0  0  0  0  0  4           0  0  0
    2.4551   -2.9082    2.4605 C   0  0  0  0  0  4           0  0  0
    3.2272   -3.7899    3.4304 C   0  0  0  0  0  4           0  0  0
  1 12  1  0     0  0
  2  6  2  0     0  0
  2  7  2  0     0  0
  2 11  1  0     0  0
  2 27  1  0     0  0
  3 27  1  0     0  0
  4 27  1  0     0  0
  5 27  1  0     0  0
  8 28  1  0     0  0
  9 13  1  0     0  0
  9 14  1  0     0  0
  9 29  1  0     0  0
 10 12  1  0     0  0
 10 13  2  0     0  0
 11 15  1  0     0  0
 12 14  2  0     0  0
 13 30  1  0     0  0
 14 28  1  0     0  0
 15 16  1  0     0  0
 15 19  2  0     0  0
 16 17  1  0     0  0
 16 20  2  0     0  0
 17 21  2  0     0  0
 17 22  1  0     0  0
 18 23  2  0     0  0
 18 24  1  0     0  0
 18 29  1  0     0  0
 19 25  1  0     0  0
 20 26  1  0     0  0
 21 23  1  0     0  0
 22 24  2  0     0  0
 25 26  2  0     0  0
 30 31  1  0     0  0
 31 32  1  0     0  0
 32 33  1  0     0  0
M  END
> <standard_type>
pIC50

> <# Confs.>
25

> <canonical_smiles>
ClC(N=C1CCCC)=C(CO)N1CC2=CC=C(C3=CC=CC=C3NS(=O)(C(F)(F)F)=O)C=C2

> <standard_relation>
=

> <Publication_ID>
nan

> <predicted_activity_value>
7.022276394711152

> <actual_activity_value>
7.080921907623926

> <Compound>
7

> <standard_units>
nM

> hash
11133345014010873493

$$$$
7_
XXILIB    08252103503D 0   0.00000     0.00000

 33 35  0     1  0            999 V2000
    5.0019    1.4987   -0.0650 Cl  0  0  0  0  0  1           0  0  0
   -2.0481   -3.5622    5.3979 S   0  0  1  0  0  6           0  0  0
   -1.2418   -4.9527    7.4368 F   0  0  0  0  0  1           0  0  0
   -3.2505   -5.4247    6.7322 F   0  0  0  0  0  1           0  0  0
   -2.8947   -3.5887    7.8540 F   0  0  0  0  0  1           0  0  0
   -3.3169   -3.0305    4.9379 O   0  0  0  0  0  2           0  0  0
   -1.2605   -4.4388    4.5531 O   0  0  0  0  0  2           0  0  0
    1.6114    2.9030   -1.4027 O   0  0  0  0  0  2           0  0  0
    1.4522    0.0000    0.0000 N   0  0  0  0  0  3           0  0  0
    3.5396   -0.7595   -0.0143 N   0  0  0  0  0  3           0  0  0
   -1.0825   -2.2494    5.9641 N   0  0  0  0  0  3           0  0  0
    3.5478    0.6103   -0.0330 C   0  0  0  0  0  4           0  0  0
    2.2701   -1.1133    0.0000 C   0  0  0  0  0  4           0  0  0
    2.2624    1.1179   -0.0275 C   0  0  0  0  0  4           0  0  0
   -1.8138   -1.0675    6.3387 C   0  0  0  0  0  4           0  0  0
   -2.0954   -0.0431    5.4059 C   0  0  0  0  0  4           0  0  0
   -1.5631   -0.0295    4.0341 C   0  0  0  0  0  4           0  0  0
   -0.5411   -0.0000    1.3972 C   0  0  0  0  0  4           0  0  0
   -2.3404   -1.0246    7.6392 C   0  0  0  0  0  4           0  0  0
   -2.9121    1.0199    5.8440 C   0  0  0  0  0  4           0  0  0
   -0.1801   -0.0118    3.8002 C   0  0  0  0  0  4           0  0  0
   -2.4272   -0.0384    2.9290 C   0  0  0  0  0  4           0  0  0
    0.3251    0.0000    2.4971 C   0  0  0  0  0  4           0  0  0
   -1.9221   -0.0261    1.6260 C   0  0  0  0  0  4           0  0  0
   -3.1372    0.0433    8.0412 C   0  0  0  0  0  4           0  0  0
   -3.4234    1.0649    7.1439 C   0  0  0  0  0  4           0  0  0
   -2.3690   -4.4121    6.9150 C   0  0  2  0  0  4           0  0  0
    1.7716    2.5121   -0.0456 C   0  0  0  0  0  4           0  0  0
    0.0000    0.0000   -0.0000 C   0  0  0  0  0  4           0  0  0
    1.7869   -2.5212    0.0145 C   0  0  0  0  0  4           0  0  0
    1.5851   -3.0797   -1.3912 C   0  0  0  0  0  4           0  0  0
    1.0886   -4.5256   -1.4255 C   0  0  0  0  0  4           0  0  0
    0.8969   -5.0545   -2.8390 C   0  0  0  0  0  4           0  0  0
  1 12  1  0     0  0
  2  6  2  0     0  0
  2  7  2  0     0  0
  2 11  1  0     0  0
  2 27  1  0     0  0
  3 27  1  0     0  0
  4 27  1  0     0  0
  5 27  1  0     0  0
  8 28  1  0     0  0
  9 13  1  0     0  0
  9 14  1  0     0  0
  9 29  1  0     0  0
 10 12  1  0     0  0
 10 13  2  0     0  0
 11 15  1  0     0  0
 12 14  2  0     0  0
 13 30  1  0     0  0
 14 28  1  0     0  0
 15 16  1  0     0  0
 15 19  2  0     0  0
 16 17  1  0     0  0
 16 20  2  0     0  0
 17 21  2  0     0  0
 17 22  1  0     0  0
 18 23  2  0     0  0
 18 24  1  0     0  0
 18 29  1  0     0  0
 19 25  1  0     0  0
 20 26  1  0     0  0
 21 23  1  0     0  0
 22 24  2  0     0  0
 25 26  2  0     0  0
 30 31  1  0     0  0
 31 32  1  0     0  0
 32 33  1  0     0  0
M  END
> <standard_type>
pIC50

> <# Confs.>
25

> <canonical_smiles>
ClC(N=C1CCCC)=C(CO)N1CC2=CC=C(C3=CC=CC=C3NS(=O)(C(F)(F)F)=O)C=C2

> <standard_relation>
=

> <Publication_ID>
nan

> <predicted_activity_value>
7.022276394711152

> <actual_activity_value>
7.080921907623926

> <Compound>
7

> <standard_units>
nM

> hash
11133345014010873493

$$$$
7_
XXILIB    08252103503D 0   0.00000     0.00000

 33 35  0     1  0            999 V2000
    5.0019   -1.4987    0.0650 Cl  0  0  0  0  0  1           0  0  0
   -4.9281    1.7221    4.3487 S   0  0  1  0  0  6           0  0  0
   -7.3114    1.1190    5.1835 F   0  0  0  0  0  1           0  0  0
   -6.7246    3.1971    5.4853 F   0  0  0  0  0  1           0  0  0
   -5.8919    1.6355    6.7598 F   0  0  0  0  0  1           0  0  0
   -3.8748    2.6245    4.7732 O   0  0  0  0  0  2           0  0  0
   -5.4718    1.7948    3.0065 O   0  0  0  0  0  2           0  0  0
    1.6114   -2.9030    1.4027 O   0  0  0  0  0  2           0  0  0
    1.4522    0.0000   -0.0000 N   0  0  0  0  0  3           0  0  0
    3.5396    0.7595    0.0143 N   0  0  0  0  0  3           0  0  0
   -4.4382    0.1078    4.7099 N   0  0  0  0  0  3           0  0  0
    3.5478   -0.6103    0.0330 C   0  0  0  0  0  4           0  0  0
    2.2701    1.1133   -0.0000 C   0  0  0  0  0  4           0  0  0
    2.2624   -1.1179    0.0275 C   0  0  0  0  0  4           0  0  0
   -3.4328   -0.0133    5.7329 C   0  0  0  0  0  4           0  0  0
   -2.0536   -0.0018    5.4221 C   0  0  0  0  0  4           0  0  0
   -1.5348   -0.0008    4.0451 C   0  0  0  0  0  4           0  0  0
   -0.5411   -0.0000    1.3972 C   0  0  0  0  0  4           0  0  0
   -3.8725   -0.0244    7.0660 C   0  0  0  0  0  4           0  0  0
   -1.1496   -0.0149    6.5044 C   0  0  0  0  0  4           0  0  0
   -1.2923    1.2044    3.3695 C   0  0  0  0  0  4           0  0  0
   -1.2671   -1.2056    3.3783 C   0  0  0  0  0  4           0  0  0
   -0.7985    1.2049    2.0620 C   0  0  0  0  0  4           0  0  0
   -0.7739   -1.2052    2.0706 C   0  0  0  0  0  4           0  0  0
   -2.9529   -0.0445    8.1104 C   0  0  0  0  0  4           0  0  0
   -1.5920   -0.0392    7.8298 C   0  0  0  0  0  4           0  0  0
   -6.2646    1.9227    5.4891 C   0  0  2  0  0  4           0  0  0
    1.7716   -2.5121    0.0456 C   0  0  0  0  0  4           0  0  0
    0.0000    0.0000    0.0000 C   0  0  0  0  0  4           0  0  0
    1.7869    2.5212   -0.0145 C   0  0  0  0  0  4           0  0  0
    2.5522    3.3868   -1.0114 C   0  0  0  0  0  4           0  0  0
    2.0894    4.8434   -1.0609 C   0  0  0  0  0  4           0  0  0
    2.8698    5.6810   -2.0627 C   0  0  0  0  0  4           0  0  0
  1 12  1  0     0  0
  2  6  2  0     0  0
  2  7  2  0     0  0
  2 11  1  0     0  0
  2 27  1  0     0  0
  3 27  1  0     0  0
  4 27  1  0     0  0
  5 27  1  0     0  0
  8 28  1  0     0  0
  9 13  1  0     0  0
  9 14  1  0     0  0
  9 29  1  0     0  0
 10 12  1  0     0  0
 10 13  2  0     0  0
 11 15  1  0     0  0
 12 14  2  0     0  0
 13 30  1  0     0  0
 14 28  1  0     0  0
 15 16  1  0     0  0
 15 19  2  0     0  0
 16 17  1  0     0  0
 16 20  2  0     0  0
 17 21  2  0     0  0
 17 22  1  0     0  0
 18 23  2  0     0  0
 18 24  1  0     0  0
 18 29  1  0     0  0
 19 25  1  0     0  0
 20 26  1  0     0  0
 21 23  1  0     0  0
 22 24  2  0     0  0
 25 26  2  0     0  0
 30 31  1  0     0  0
 31 32  1  0     0  0
 32 33  1  0     0  0
M  END
> <standard_type>
pIC50

> <# Confs.>
25

> <canonical_smiles>
ClC(N=C1CCCC)=C(CO)N1CC2=CC=C(C3=CC=CC=C3NS(=O)(C(F)(F)F)=O)C=C2

> <standard_relation>
=

> <Publication_ID>
nan

> <predicted_activity_value>
7.022276394711152

> <actual_activity_value>
7.080921907623926

> <Compound>
7

> <standard_units>
nM

> hash
11133345014010873493

$$$$
7_
XXILIB    08252103503D 0   0.00000     0.00000

 33 35  0     1  0            999 V2000
    5.0019   -1.4987    0.0650 Cl  0  0  0  0  0  1           0  0  0
   -4.9281    1.7221    4.3487 S   0  0  1  0  0  6           0  0  0
   -7.3114    1.1190    5.1835 F   0  0  0  0  0  1           0  0  0
   -6.7246    3.1971    5.4853 F   0  0  0  0  0  1           0  0  0
   -5.8919    1.6355    6.7598 F   0  0  0  0  0  1           0  0  0
   -3.8748    2.6245    4.7732 O   0  0  0  0  0  2           0  0  0
   -5.4718    1.7948    3.0065 O   0  0  0  0  0  2           0  0  0
    1.6114   -2.9030    1.4027 O   0  0  0  0  0  2           0  0  0
    1.4522    0.0000   -0.0000 N   0  0  0  0  0  3           0  0  0
    3.5396    0.7595    0.0143 N   0  0  0  0  0  3           0  0  0
   -4.4382    0.1078    4.7099 N   0  0  0  0  0  3           0  0  0
    3.5478   -0.6103    0.0330 C   0  0  0  0  0  4           0  0  0
    2.2701    1.1133   -0.0000 C   0  0  0  0  0  4           0  0  0
    2.2624   -1.1179    0.0275 C   0  0  0  0  0  4           0  0  0
   -3.4328   -0.0133    5.7329 C   0  0  0  0  0  4           0  0  0
   -2.0536   -0.0018    5.4221 C   0  0  0  0  0  4           0  0  0
   -1.5348   -0.0008    4.0451 C   0  0  0  0  0  4           0  0  0
   -0.5411   -0.0000    1.3972 C   0  0  0  0  0  4           0  0  0
   -3.8725   -0.0244    7.0660 C   0  0  0  0  0  4           0  0  0
   -1.1496   -0.0149    6.5044 C   0  0  0  0  0  4           0  0  0
   -1.2923    1.2044    3.3695 C   0  0  0  0  0  4           0  0  0
   -1.2671   -1.2056    3.3783 C   0  0  0  0  0  4           0  0  0
   -0.7985    1.2049    2.0620 C   0  0  0  0  0  4           0  0  0
   -0.7739   -1.2052    2.0706 C   0  0  0  0  0  4           0  0  0
   -2.9529   -0.0445    8.1104 C   0  0  0  0  0  4           0  0  0
   -1.5920   -0.0392    7.8298 C   0  0  0  0  0  4           0  0  0
   -6.2646    1.9227    5.4891 C   0  0  2  0  0  4           0  0  0
    1.7716   -2.5121    0.0456 C   0  0  0  0  0  4           0  0  0
    0.0000    0.0000    0.0000 C   0  0  0  0  0  4           0  0  0
    1.7869    2.5212   -0.0145 C   0  0  0  0  0  4           0  0  0
    2.5522    3.3868   -1.0114 C   0  0  0  0  0  4           0  0  0
    2.4551    2.9082   -2.4605 C   0  0  0  0  0  4           0  0  0
    3.2272    3.7899   -3.4304 C   0  0  0  0  0  4           0  0  0
  1 12  1  0     0  0
  2  6  2  0     0  0
  2  7  2  0     0  0
  2 11  1  0     0  0
  2 27  1  0     0  0
  3 27  1  0     0  0
  4 27  1  0     0  0
  5 27  1  0     0  0
  8 28  1  0     0  0
  9 13  1  0     0  0
  9 14  1  0     0  0
  9 29  1  0     0  0
 10 12  1  0     0  0
 10 13  2  0     0  0
 11 15  1  0     0  0
 12 14  2  0     0  0
 13 30  1  0     0  0
 14 28  1  0     0  0
 15 16  1  0     0  0
 15 19  2  0     0  0
 16 17  1  0     0  0
 16 20  2  0     0  0
 17 21  2  0     0  0
 17 22  1  0     0  0
 18 23  2  0     0  0
 18 24  1  0     0  0
 18 29  1  0     0  0
 19 25  1  0     0  0
 20 26  1  0     0  0
 21 23  1  0     0  0
 22 24  2  0     0  0
 25 26  2  0     0  0
 30 31  1  0     0  0
 31 32  1  0     0  0
 32 33  1  0     0  0
M  END
> <standard_type>
pIC50

> <# Confs.>
25

> <canonical_smiles>
ClC(N=C1CCCC)=C(CO)N1CC2=CC=C(C3=CC=CC=C3NS(=O)(C(F)(F)F)=O)C=C2

> <standard_relation>
=

> <Publication_ID>
nan

> <predicted_activity_value>
7.022276394711152

> <actual_activity_value>
7.080921907623926

> <Compound>
7

> <standard_units>
nM

> hash
11133345014010873493

$$$$
7_
XXILIB    08252103503D 0   0.00000     0.00000

 33 35  0     1  0            999 V2000
    5.0019    1.4987   -0.0650 Cl  0  0  0  0  0  1           0  0  0
   -0.6977   -3.2659    5.6217 S   0  0  1  0  0  6           0  0  0
   -0.9850   -3.3257    8.2013 F   0  0  0  0  0  1           0  0  0
    0.2079   -4.9485    7.3663 F   0  0  0  0  0  1           0  0  0
   -1.9604   -4.9607    7.1327 F   0  0  0  0  0  1           0  0  0
   -0.5824   -4.2528    4.5648 O   0  0  0  0  0  2           0  0  0
    0.3264   -2.2569    5.8101 O   0  0  0  0  0  2           0  0  0
    1.6114    2.9030   -1.4027 O   0  0  0  0  0  2           0  0  0
    1.4522    0.0000    0.0000 N   0  0  0  0  0  3           0  0  0
    3.5396   -0.7595   -0.0143 N   0  0  0  0  0  3           0  0  0
   -2.2525   -2.5272    5.5073 N   0  0  0  0  0  3           0  0  0
    3.5478    0.6103   -0.0330 C   0  0  0  0  0  4           0  0  0
    2.2701   -1.1133    0.0000 C   0  0  0  0  0  4           0  0  0
    2.2624    1.1179   -0.0275 C   0  0  0  0  0  4           0  0  0
   -2.3624   -1.2313    6.1242 C   0  0  0  0  0  4           0  0  0
   -2.0954   -0.0431    5.4059 C   0  0  0  0  0  4           0  0  0
   -1.5631   -0.0295    4.0341 C   0  0  0  0  0  4           0  0  0
   -0.5411   -0.0000    1.3972 C   0  0  0  0  0  4           0  0  0
   -2.8605   -1.1856    7.4358 C   0  0  0  0  0  4           0  0  0
   -2.3388    1.1781    6.0681 C   0  0  0  0  0  4           0  0  0
   -0.1801   -0.0118    3.8002 C   0  0  0  0  0  4           0  0  0
   -2.4272   -0.0384    2.9290 C   0  0  0  0  0  4           0  0  0
    0.3251    0.0000    2.4971 C   0  0  0  0  0  4           0  0  0
   -1.9221   -0.0261    1.6260 C   0  0  0  0  0  4           0  0  0
   -3.0826    0.0371    8.0624 C   0  0  0  0  0  4           0  0  0
   -2.8224    1.2185    7.3786 C   0  0  0  0  0  4           0  0  0
   -0.8687   -4.1580    7.1388 C   0  0  2  0  0  4           0  0  0
    1.7716    2.5121   -0.0456 C   0  0  0  0  0  4           0  0  0
    0.0000    0.0000   -0.0000 C   0  0  0  0  0  4           0  0  0
    1.7869   -2.5212    0.0145 C   0  0  0  0  0  4           0  0  0
    1.5851   -3.0797   -1.3912 C   0  0  0  0  0  4           0  0  0
    1.0886   -4.5256   -1.4255 C   0  0  0  0  0  4           0  0  0
    0.8969   -5.0545   -2.8390 C   0  0  0  0  0  4           0  0  0
  1 12  1  0     0  0
  2  6  2  0     0  0
  2  7  2  0     0  0
  2 11  1  0     0  0
  2 27  1  0     0  0
  3 27  1  0     0  0
  4 27  1  0     0  0
  5 27  1  0     0  0
  8 28  1  0     0  0
  9 13  1  0     0  0
  9 14  1  0     0  0
  9 29  1  0     0  0
 10 12  1  0     0  0
 10 13  2  0     0  0
 11 15  1  0     0  0
 12 14  2  0     0  0
 13 30  1  0     0  0
 14 28  1  0     0  0
 15 16  1  0     0  0
 15 19  2  0     0  0
 16 17  1  0     0  0
 16 20  2  0     0  0
 17 21  2  0     0  0
 17 22  1  0     0  0
 18 23  2  0     0  0
 18 24  1  0     0  0
 18 29  1  0     0  0
 19 25  1  0     0  0
 20 26  1  0     0  0
 21 23  1  0     0  0
 22 24  2  0     0  0
 25 26  2  0     0  0
 30 31  1  0     0  0
 31 32  1  0     0  0
 32 33  1  0     0  0
M  END
> <standard_type>
pIC50

> <# Confs.>
25

> <canonical_smiles>
ClC(N=C1CCCC)=C(CO)N1CC2=CC=C(C3=CC=CC=C3NS(=O)(C(F)(F)F)=O)C=C2

> <standard_relation>
=

> <Publication_ID>
nan

> <predicted_activity_value>
7.022276394711152

> <actual_activity_value>
7.080921907623926

> <Compound>
7

> <standard_units>
nM

> hash
11133345014010873493

$$$$
7_
XXILIB    08252103503D 0   0.00000     0.00000

 33 35  0     1  0            999 V2000
    5.0019    1.4987   -0.0650 Cl  0  0  0  0  0  1           0  0  0
   -3.2943    3.1848    4.6776 S   0  0  1  0  0  6           0  0  0
   -4.8225    3.1985    6.7764 F   0  0  0  0  0  1           0  0  0
   -5.1508    4.8433    5.3832 F   0  0  0  0  0  1           0  0  0
   -3.3925    4.8450    6.6735 F   0  0  0  0  0  1           0  0  0
   -2.6732    4.1904    3.8367 O   0  0  0  0  0  2           0  0  0
   -4.1708    2.1796    4.1086 O   0  0  0  0  0  2           0  0  0
    1.6114    2.9030   -1.4027 O   0  0  0  0  0  2           0  0  0
    1.4522    0.0000    0.0000 N   0  0  0  0  0  3           0  0  0
    3.5396   -0.7595   -0.0143 N   0  0  0  0  0  3           0  0  0
   -2.0644    2.4378    5.6292 N   0  0  0  0  0  3           0  0  0
    3.5478    0.6103   -0.0330 C   0  0  0  0  0  4           0  0  0
    2.2701   -1.1133    0.0000 C   0  0  0  0  0  4           0  0  0
    2.2624    1.1179   -0.0275 C   0  0  0  0  0  4           0  0  0
   -2.3907    1.1309    6.1365 C   0  0  0  0  0  4           0  0  0
   -2.0954   -0.0431    5.4059 C   0  0  0  0  0  4           0  0  0
   -1.5631   -0.0295    4.0341 C   0  0  0  0  0  4           0  0  0
   -0.5411    0.0000    1.3972 C   0  0  0  0  0  4           0  0  0
   -2.9073    1.0594    7.4397 C   0  0  0  0  0  4           0  0  0
   -2.3542   -1.2769    6.0379 C   0  0  0  0  0  4           0  0  0
   -0.1801   -0.0118    3.8002 C   0  0  0  0  0  4           0  0  0
   -2.4272   -0.0384    2.9290 C   0  0  0  0  0  4           0  0  0
    0.3251   -0.0000    2.4971 C   0  0  0  0  0  4           0  0  0
   -1.9221   -0.0261    1.6260 C   0  0  0  0  0  4           0  0  0
   -3.1578   -0.1753    8.0311 C   0  0  0  0  0  4           0  0  0
   -2.8809   -1.3430    7.3307 C   0  0  0  0  0  4           0  0  0
   -4.1972    4.0497    5.9280 C   0  0  2  0  0  4           0  0  0
    1.7716    2.5121   -0.0456 C   0  0  0  0  0  4           0  0  0
    0.0000    0.0000    0.0000 C   0  0  0  0  0  4           0  0  0
    1.7869   -2.5212    0.0145 C   0  0  0  0  0  4           0  0  0
    1.5851   -3.0797   -1.3912 C   0  0  0  0  0  4           0  0  0
    2.8517   -3.0929   -2.2478 C   0  0  0  0  0  4           0  0  0
    2.6199   -3.6545   -3.6425 C   0  0  0  0  0  4           0  0  0
  1 12  1  0     0  0
  2  6  2  0     0  0
  2  7  2  0     0  0
  2 11  1  0     0  0
  2 27  1  0     0  0
  3 27  1  0     0  0
  4 27  1  0     0  0
  5 27  1  0     0  0
  8 28  1  0     0  0
  9 13  1  0     0  0
  9 14  1  0     0  0
  9 29  1  0     0  0
 10 12  1  0     0  0
 10 13  2  0     0  0
 11 15  1  0     0  0
 12 14  2  0     0  0
 13 30  1  0     0  0
 14 28  1  0     0  0
 15 16  1  0     0  0
 15 19  2  0     0  0
 16 17  1  0     0  0
 16 20  2  0     0  0
 17 21  2  0     0  0
 17 22  1  0     0  0
 18 23  2  0     0  0
 18 24  1  0     0  0
 18 29  1  0     0  0
 19 25  1  0     0  0
 20 26  1  0     0  0
 21 23  1  0     0  0
 22 24  2  0     0  0
 25 26  2  0     0  0
 30 31  1  0     0  0
 31 32  1  0     0  0
 32 33  1  0     0  0
M  END
> <standard_type>
pIC50

> <# Confs.>
25

> <canonical_smiles>
ClC(N=C1CCCC)=C(CO)N1CC2=CC=C(C3=CC=CC=C3NS(=O)(C(F)(F)F)=O)C=C2

> <standard_relation>
=

> <Publication_ID>
nan

> <predicted_activity_value>
7.022276394711152

> <actual_activity_value>
7.080921907623926

> <Compound>
7

> <standard_units>
nM

> hash
11133345014010873493

$$$$
7_
XXILIB    08252103503D 0   0.00000     0.00000

 33 35  0     1  0            999 V2000
    5.0019    1.4987   -0.0650 Cl  0  0  0  0  0  1           0  0  0
   -3.6952   -3.1114    4.7631 S   0  0  1  0  0  6           0  0  0
   -3.7143   -5.0622    6.4763 F   0  0  0  0  0  1           0  0  0
   -5.6807   -4.4073    5.7991 F   0  0  0  0  0  1           0  0  0
   -4.5552   -3.1871    7.2136 F   0  0  0  0  0  1           0  0  0
   -4.5494   -1.9763    4.4699 O   0  0  0  0  0  2           0  0  0
   -3.3740   -4.0835    3.7365 O   0  0  0  0  0  2           0  0  0
    1.6114    2.9030   -1.4027 O   0  0  0  0  0  2           0  0  0
    1.4522    0.0000    0.0000 N   0  0  0  0  0  3           0  0  0
    3.5396   -0.7595   -0.0143 N   0  0  0  0  0  3           0  0  0
   -2.2525   -2.5272    5.5073 N   0  0  0  0  0  3           0  0  0
    3.5478    0.6103   -0.0330 C   0  0  0  0  0  4           0  0  0
    2.2701   -1.1133    0.0000 C   0  0  0  0  0  4           0  0  0
    2.2624    1.1179   -0.0275 C   0  0  0  0  0  4           0  0  0
   -2.3624   -1.2313    6.1242 C   0  0  0  0  0  4           0  0  0
   -2.0954   -0.0431    5.4059 C   0  0  0  0  0  4           0  0  0
   -1.5631   -0.0295    4.0341 C   0  0  0  0  0  4           0  0  0
   -0.5411   -0.0000    1.3972 C   0  0  0  0  0  4           0  0  0
   -2.8605   -1.1856    7.4358 C   0  0  0  0  0  4           0  0  0
   -2.3388    1.1781    6.0681 C   0  0  0  0  0  4           0  0  0
   -0.1801   -0.0118    3.8002 C   0  0  0  0  0  4           0  0  0
   -2.4272   -0.0384    2.9290 C   0  0  0  0  0  4           0  0  0
    0.3251    0.0000    2.4971 C   0  0  0  0  0  4           0  0  0
   -1.9221   -0.0261    1.6260 C   0  0  0  0  0  4           0  0  0
   -3.0826    0.0371    8.0624 C   0  0  0  0  0  4           0  0  0
   -2.8224    1.2185    7.3786 C   0  0  0  0  0  4           0  0  0
   -4.4368   -3.9741    6.1169 C   0  0  2  0  0  4           0  0  0
    1.7716    2.5121   -0.0456 C   0  0  0  0  0  4           0  0  0
    0.0000    0.0000   -0.0000 C   0  0  0  0  0  4           0  0  0
    1.7869   -2.5212    0.0145 C   0  0  0  0  0  4           0  0  0
    1.6121   -3.0599    1.4316 C   0  0  0  0  0  4           0  0  0
    1.1166   -4.5050    1.4957 C   0  0  0  0  0  4           0  0  0
    0.9520   -5.0140    2.9198 C   0  0  0  0  0  4           0  0  0
  1 12  1  0     0  0
  2  6  2  0     0  0
  2  7  2  0     0  0
  2 11  1  0     0  0
  2 27  1  0     0  0
  3 27  1  0     0  0
  4 27  1  0     0  0
  5 27  1  0     0  0
  8 28  1  0     0  0
  9 13  1  0     0  0
  9 14  1  0     0  0
  9 29  1  0     0  0
 10 12  1  0     0  0
 10 13  2  0     0  0
 11 15  1  0     0  0
 12 14  2  0     0  0
 13 30  1  0     0  0
 14 28  1  0     0  0
 15 16  1  0     0  0
 15 19  2  0     0  0
 16 17  1  0     0  0
 16 20  2  0     0  0
 17 21  2  0     0  0
 17 22  1  0     0  0
 18 23  2  0     0  0
 18 24  1  0     0  0
 18 29  1  0     0  0
 19 25  1  0     0  0
 20 26  1  0     0  0
 21 23  1  0     0  0
 22 24  2  0     0  0
 25 26  2  0     0  0
 30 31  1  0     0  0
 31 32  1  0     0  0
 32 33  1  0     0  0
M  END
> <standard_type>
pIC50

> <# Confs.>
25

> <canonical_smiles>
ClC(N=C1CCCC)=C(CO)N1CC2=CC=C(C3=CC=CC=C3NS(=O)(C(F)(F)F)=O)C=C2

> <standard_relation>
=

> <Publication_ID>
nan

> <predicted_activity_value>
7.022276394711152

> <actual_activity_value>
7.080921907623926

> <Compound>
7

> <standard_units>
nM

> hash
11133345014010873493

$$$$
7_
XXILIB    08252103503D 0   0.00000     0.00000

 33 35  0     1  0            999 V2000
    5.0019    1.4987   -0.0650 Cl  0  0  0  0  0  1           0  0  0
   -1.2480   -3.3568    5.7739 S   0  0  1  0  0  6           0  0  0
   -0.1755   -4.2887    7.9469 F   0  0  0  0  0  1           0  0  0
   -2.0036   -5.2942    7.3135 F   0  0  0  0  0  1           0  0  0
   -2.1100   -3.3154    8.2244 F   0  0  0  0  0  1           0  0  0
   -2.5974   -3.1919    5.2679 O   0  0  0  0  0  2           0  0  0
   -0.2609   -4.1094    5.0245 O   0  0  0  0  0  2           0  0  0
    1.6114    2.9030   -1.4027 O   0  0  0  0  0  2           0  0  0
    1.4522    0.0000    0.0000 N   0  0  0  0  0  3           0  0  0
    3.5396   -0.7595   -0.0143 N   0  0  0  0  0  3           0  0  0
   -0.6285   -1.8001    6.1853 N   0  0  0  0  0  3           0  0  0
    3.5478    0.6103   -0.0330 C   0  0  0  0  0  4           0  0  0
    2.2701   -1.1133    0.0000 C   0  0  0  0  0  4           0  0  0
    2.2624    1.1179   -0.0275 C   0  0  0  0  0  4           0  0  0
   -1.6238   -0.7902    6.4335 C   0  0  0  0  0  4           0  0  0
   -2.1210    0.0317    5.3960 C   0  0  0  0  0  4           0  0  0
   -1.5813    0.0215    4.0271 C   0  0  0  0  0  4           0  0  0
   -0.5411    0.0000    1.3972 C   0  0  0  0  0  4           0  0  0
   -2.1699   -0.7318    7.7253 C   0  0  0  0  0  4           0  0  0
   -3.1725    0.9135    5.7210 C   0  0  0  0  0  4           0  0  0
   -2.1052   -0.8434    3.0547 C   0  0  0  0  0  4           0  0  0
   -0.5333    0.8797    3.6624 C   0  0  0  0  0  4           0  0  0
   -1.5930   -0.8520    1.7543 C   0  0  0  0  0  4           0  0  0
   -0.0207    0.8706    2.3623 C   0  0  0  0  0  4           0  0  0
   -3.2026    0.1554    8.0137 C   0  0  0  0  0  4           0  0  0
   -3.7041    0.9774    7.0119 C   0  0  0  0  0  4           0  0  0
   -1.3883   -4.0887    7.3775 C   0  0  2  0  0  4           0  0  0
    1.7716    2.5121   -0.0456 C   0  0  0  0  0  4           0  0  0
    0.0000    0.0000   -0.0000 C   0  0  0  0  0  4           0  0  0
    1.7869   -2.5212    0.0145 C   0  0  0  0  0  4           0  0  0
    2.5522   -3.3868    1.0114 C   0  0  0  0  0  4           0  0  0
    2.4551   -2.9082    2.4605 C   0  0  0  0  0  4           0  0  0
    3.2272   -3.7899    3.4304 C   0  0  0  0  0  4           0  0  0
  1 12  1  0     0  0
  2  6  2  0     0  0
  2  7  2  0     0  0
  2 11  1  0     0  0
  2 27  1  0     0  0
  3 27  1  0     0  0
  4 27  1  0     0  0
  5 27  1  0     0  0
  8 28  1  0     0  0
  9 13  1  0     0  0
  9 14  1  0     0  0
  9 29  1  0     0  0
 10 12  1  0     0  0
 10 13  2  0     0  0
 11 15  1  0     0  0
 12 14  2  0     0  0
 13 30  1  0     0  0
 14 28  1  0     0  0
 15 16  1  0     0  0
 15 19  2  0     0  0
 16 17  1  0     0  0
 16 20  2  0     0  0
 17 21  2  0     0  0
 17 22  1  0     0  0
 18 23  2  0     0  0
 18 24  1  0     0  0
 18 29  1  0     0  0
 19 25  1  0     0  0
 20 26  1  0     0  0
 21 23  1  0     0  0
 22 24  2  0     0  0
 25 26  2  0     0  0
 30 31  1  0     0  0
 31 32  1  0     0  0
 32 33  1  0     0  0
M  END
> <standard_type>
pIC50

> <# Confs.>
25

> <canonical_smiles>
ClC(N=C1CCCC)=C(CO)N1CC2=CC=C(C3=CC=CC=C3NS(=O)(C(F)(F)F)=O)C=C2

> <standard_relation>
=

> <Publication_ID>
nan

> <predicted_activity_value>
7.022276394711152

> <actual_activity_value>
7.080921907623926

> <Compound>
7

> <standard_units>
nM

> hash
11133345014010873493

$$$$
7_
XXILIB    08252103503D 0   0.00000     0.00000

 33 35  0     1  0            999 V2000
    5.0019    1.4987   -0.0650 Cl  0  0  0  0  0  1           0  0  0
   -0.5013    3.0251    6.0630 S   0  0  1  0  0  6           0  0  0
   -1.6556    4.9461    7.3737 F   0  0  0  0  0  1           0  0  0
    0.2572    4.2899    8.1891 F   0  0  0  0  0  1           0  0  0
   -1.5196    3.0532    8.4530 F   0  0  0  0  0  1           0  0  0
    0.3347    1.8895    6.4034 O   0  0  0  0  0  2           0  0  0
   -0.0524    4.0168    5.1052 O   0  0  0  0  0  2           0  0  0
    1.6114    2.9030   -1.4027 O   0  0  0  0  0  2           0  0  0
    1.4522    0.0000    0.0000 N   0  0  0  0  0  3           0  0  0
    3.5396   -0.7595   -0.0143 N   0  0  0  0  0  3           0  0  0
   -2.0644    2.4378    5.6292 N   0  0  0  0  0  3           0  0  0
    3.5478    0.6103   -0.0330 C   0  0  0  0  0  4           0  0  0
    2.2701   -1.1133    0.0000 C   0  0  0  0  0  4           0  0  0
    2.2624    1.1179   -0.0275 C   0  0  0  0  0  4           0  0  0
   -2.3907    1.1309    6.1365 C   0  0  0  0  0  4           0  0  0
   -2.0954   -0.0431    5.4059 C   0  0  0  0  0  4           0  0  0
   -1.5631   -0.0295    4.0341 C   0  0  0  0  0  4           0  0  0
   -0.5411    0.0000    1.3972 C   0  0  0  0  0  4           0  0  0
   -2.9073    1.0594    7.4397 C   0  0  0  0  0  4           0  0  0
   -2.3542   -1.2769    6.0379 C   0  0  0  0  0  4           0  0  0
   -0.1801   -0.0118    3.8002 C   0  0  0  0  0  4           0  0  0
   -2.4272   -0.0384    2.9290 C   0  0  0  0  0  4           0  0  0
    0.3251   -0.0000    2.4971 C   0  0  0  0  0  4           0  0  0
   -1.9221   -0.0261    1.6260 C   0  0  0  0  0  4           0  0  0
   -3.1578   -0.1753    8.0311 C   0  0  0  0  0  4           0  0  0
   -2.8809   -1.3430    7.3307 C   0  0  0  0  0  4           0  0  0
   -0.8725    3.8596    7.5772 C   0  0  2  0  0  4           0  0  0
    1.7716    2.5121   -0.0456 C   0  0  0  0  0  4           0  0  0
    0.0000    0.0000    0.0000 C   0  0  0  0  0  4           0  0  0
    1.7869   -2.5212    0.0145 C   0  0  0  0  0  4           0  0  0
    2.9337   -3.5280    0.0106 C   0  0  0  0  0  4           0  0  0
    2.4841   -4.9895    0.0252 C   0  0  0  0  0  4           0  0  0
    3.6480   -5.9691    0.0209 C   0  0  0  0  0  4           0  0  0
  1 12  1  0     0  0
  2  6  2  0     0  0
  2  7  2  0     0  0
  2 11  1  0     0  0
  2 27  1  0     0  0
  3 27  1  0     0  0
  4 27  1  0     0  0
  5 27  1  0     0  0
  8 28  1  0     0  0
  9 13  1  0     0  0
  9 14  1  0     0  0
  9 29  1  0     0  0
 10 12  1  0     0  0
 10 13  2  0     0  0
 11 15  1  0     0  0
 12 14  2  0     0  0
 13 30  1  0     0  0
 14 28  1  0     0  0
 15 16  1  0     0  0
 15 19  2  0     0  0
 16 17  1  0     0  0
 16 20  2  0     0  0
 17 21  2  0     0  0
 17 22  1  0     0  0
 18 23  2  0     0  0
 18 24  1  0     0  0
 18 29  1  0     0  0
 19 25  1  0     0  0
 20 26  1  0     0  0
 21 23  1  0     0  0
 22 24  2  0     0  0
 25 26  2  0     0  0
 30 31  1  0     0  0
 31 32  1  0     0  0
 32 33  1  0     0  0
M  END
> <standard_type>
pIC50

> <# Confs.>
25

> <canonical_smiles>
ClC(N=C1CCCC)=C(CO)N1CC2=CC=C(C3=CC=CC=C3NS(=O)(C(F)(F)F)=O)C=C2

> <standard_relation>
=

> <Publication_ID>
nan

> <predicted_activity_value>
7.022276394711152

> <actual_activity_value>
7.080921907623926

> <Compound>
7

> <standard_units>
nM

> hash
11133345014010873493

$$$$
7_
XXILIB    08252103503D 0   0.00000     0.00000

 33 35  0     1  0            999 V2000
    5.0019    1.4987   -0.0650 Cl  0  0  0  0  0  1           0  0  0
   -0.5013    3.0251    6.0630 S   0  0  1  0  0  6           0  0  0
   -1.6556    4.9461    7.3737 F   0  0  0  0  0  1           0  0  0
    0.2572    4.2899    8.1891 F   0  0  0  0  0  1           0  0  0
   -1.5196    3.0532    8.4530 F   0  0  0  0  0  1           0  0  0
    0.3347    1.8895    6.4034 O   0  0  0  0  0  2           0  0  0
   -0.0524    4.0168    5.1052 O   0  0  0  0  0  2           0  0  0
    1.6114    2.9030   -1.4027 O   0  0  0  0  0  2           0  0  0
    1.4522    0.0000    0.0000 N   0  0  0  0  0  3           0  0  0
    3.5396   -0.7595   -0.0143 N   0  0  0  0  0  3           0  0  0
   -2.0644    2.4378    5.6292 N   0  0  0  0  0  3           0  0  0
    3.5478    0.6103   -0.0330 C   0  0  0  0  0  4           0  0  0
    2.2701   -1.1133    0.0000 C   0  0  0  0  0  4           0  0  0
    2.2624    1.1179   -0.0275 C   0  0  0  0  0  4           0  0  0
   -2.3907    1.1309    6.1365 C   0  0  0  0  0  4           0  0  0
   -2.0954   -0.0431    5.4059 C   0  0  0  0  0  4           0  0  0
   -1.5631   -0.0295    4.0341 C   0  0  0  0  0  4           0  0  0
   -0.5411    0.0000    1.3972 C   0  0  0  0  0  4           0  0  0
   -2.9073    1.0594    7.4397 C   0  0  0  0  0  4           0  0  0
   -2.3542   -1.2769    6.0379 C   0  0  0  0  0  4           0  0  0
   -0.1801   -0.0118    3.8002 C   0  0  0  0  0  4           0  0  0
   -2.4272   -0.0384    2.9290 C   0  0  0  0  0  4           0  0  0
    0.3251   -0.0000    2.4971 C   0  0  0  0  0  4           0  0  0
   -1.9221   -0.0261    1.6260 C   0  0  0  0  0  4           0  0  0
   -3.1578   -0.1753    8.0311 C   0  0  0  0  0  4           0  0  0
   -2.8809   -1.3430    7.3307 C   0  0  0  0  0  4           0  0  0
   -0.8725    3.8596    7.5772 C   0  0  2  0  0  4           0  0  0
    1.7716    2.5121   -0.0456 C   0  0  0  0  0  4           0  0  0
    0.0000    0.0000    0.0000 C   0  0  0  0  0  4           0  0  0
    1.7869   -2.5212    0.0145 C   0  0  0  0  0  4           0  0  0
    2.5522   -3.3868    1.0114 C   0  0  0  0  0  4           0  0  0
    2.4551   -2.9082    2.4605 C   0  0  0  0  0  4           0  0  0
    3.2272   -3.7899    3.4304 C   0  0  0  0  0  4           0  0  0
  1 12  1  0     0  0
  2  6  2  0     0  0
  2  7  2  0     0  0
  2 11  1  0     0  0
  2 27  1  0     0  0
  3 27  1  0     0  0
  4 27  1  0     0  0
  5 27  1  0     0  0
  8 28  1  0     0  0
  9 13  1  0     0  0
  9 14  1  0     0  0
  9 29  1  0     0  0
 10 12  1  0     0  0
 10 13  2  0     0  0
 11 15  1  0     0  0
 12 14  2  0     0  0
 13 30  1  0     0  0
 14 28  1  0     0  0
 15 16  1  0     0  0
 15 19  2  0     0  0
 16 17  1  0     0  0
 16 20  2  0     0  0
 17 21  2  0     0  0
 17 22  1  0     0  0
 18 23  2  0     0  0
 18 24  1  0     0  0
 18 29  1  0     0  0
 19 25  1  0     0  0
 20 26  1  0     0  0
 21 23  1  0     0  0
 22 24  2  0     0  0
 25 26  2  0     0  0
 30 31  1  0     0  0
 31 32  1  0     0  0
 32 33  1  0     0  0
M  END
> <standard_type>
pIC50

> <# Confs.>
25

> <canonical_smiles>
ClC(N=C1CCCC)=C(CO)N1CC2=CC=C(C3=CC=CC=C3NS(=O)(C(F)(F)F)=O)C=C2

> <standard_relation>
=

> <Publication_ID>
nan

> <predicted_activity_value>
7.022276394711152

> <actual_activity_value>
7.080921907623926

> <Compound>
7

> <standard_units>
nM

> hash
11133345014010873493

$$$$
7_
XXILIB    08252103503D 0   0.00000     0.00000

 33 35  0     1  0            999 V2000
    5.0019    1.4987   -0.0650 Cl  0  0  0  0  0  1           0  0  0
   -2.0481   -3.5622    5.3979 S   0  0  1  0  0  6           0  0  0
   -1.2418   -4.9527    7.4368 F   0  0  0  0  0  1           0  0  0
   -3.2505   -5.4247    6.7322 F   0  0  0  0  0  1           0  0  0
   -2.8947   -3.5887    7.8540 F   0  0  0  0  0  1           0  0  0
   -3.3169   -3.0305    4.9379 O   0  0  0  0  0  2           0  0  0
   -1.2605   -4.4388    4.5531 O   0  0  0  0  0  2           0  0  0
    1.6114    2.9030   -1.4027 O   0  0  0  0  0  2           0  0  0
    1.4522    0.0000    0.0000 N   0  0  0  0  0  3           0  0  0
    3.5396   -0.7595   -0.0143 N   0  0  0  0  0  3           0  0  0
   -1.0825   -2.2494    5.9641 N   0  0  0  0  0  3           0  0  0
    3.5478    0.6103   -0.0330 C   0  0  0  0  0  4           0  0  0
    2.2701   -1.1133    0.0000 C   0  0  0  0  0  4           0  0  0
    2.2624    1.1179   -0.0275 C   0  0  0  0  0  4           0  0  0
   -1.8138   -1.0675    6.3387 C   0  0  0  0  0  4           0  0  0
   -2.0954   -0.0431    5.4059 C   0  0  0  0  0  4           0  0  0
   -1.5631   -0.0295    4.0341 C   0  0  0  0  0  4           0  0  0
   -0.5411   -0.0000    1.3972 C   0  0  0  0  0  4           0  0  0
   -2.3404   -1.0246    7.6392 C   0  0  0  0  0  4           0  0  0
   -2.9121    1.0199    5.8440 C   0  0  0  0  0  4           0  0  0
   -0.1801   -0.0118    3.8002 C   0  0  0  0  0  4           0  0  0
   -2.4272   -0.0384    2.9290 C   0  0  0  0  0  4           0  0  0
    0.3251    0.0000    2.4971 C   0  0  0  0  0  4           0  0  0
   -1.9221   -0.0261    1.6260 C   0  0  0  0  0  4           0  0  0
   -3.1372    0.0433    8.0412 C   0  0  0  0  0  4           0  0  0
   -3.4234    1.0649    7.1439 C   0  0  0  0  0  4           0  0  0
   -2.3690   -4.4121    6.9150 C   0  0  2  0  0  4           0  0  0
    1.7716    2.5121   -0.0456 C   0  0  0  0  0  4           0  0  0
    0.0000    0.0000   -0.0000 C   0  0  0  0  0  4           0  0  0
    1.7869   -2.5212    0.0145 C   0  0  0  0  0  4           0  0  0
    1.5851   -3.0797   -1.3912 C   0  0  0  0  0  4           0  0  0
    2.8517   -3.0929   -2.2478 C   0  0  0  0  0  4           0  0  0
    2.6199   -3.6545   -3.6425 C   0  0  0  0  0  4           0  0  0
  1 12  1  0     0  0
  2  6  2  0     0  0
  2  7  2  0     0  0
  2 11  1  0     0  0
  2 27  1  0     0  0
  3 27  1  0     0  0
  4 27  1  0     0  0
  5 27  1  0     0  0
  8 28  1  0     0  0
  9 13  1  0     0  0
  9 14  1  0     0  0
  9 29  1  0     0  0
 10 12  1  0     0  0
 10 13  2  0     0  0
 11 15  1  0     0  0
 12 14  2  0     0  0
 13 30  1  0     0  0
 14 28  1  0     0  0
 15 16  1  0     0  0
 15 19  2  0     0  0
 16 17  1  0     0  0
 16 20  2  0     0  0
 17 21  2  0     0  0
 17 22  1  0     0  0
 18 23  2  0     0  0
 18 24  1  0     0  0
 18 29  1  0     0  0
 19 25  1  0     0  0
 20 26  1  0     0  0
 21 23  1  0     0  0
 22 24  2  0     0  0
 25 26  2  0     0  0
 30 31  1  0     0  0
 31 32  1  0     0  0
 32 33  1  0     0  0
M  END
> <standard_type>
pIC50

> <# Confs.>
25

> <canonical_smiles>
ClC(N=C1CCCC)=C(CO)N1CC2=CC=C(C3=CC=CC=C3NS(=O)(C(F)(F)F)=O)C=C2

> <standard_relation>
=

> <Publication_ID>
nan

> <predicted_activity_value>
7.022276394711152

> <actual_activity_value>
7.080921907623926

> <Compound>
7

> <standard_units>
nM

> hash
11133345014010873493

$$$$
7_
XXILIB    08252103503D 0   0.00000     0.00000

 33 35  0     1  0            999 V2000
    5.0019    1.4987   -0.0650 Cl  0  0  0  0  0  1           0  0  0
   -0.6977   -3.2659    5.6217 S   0  0  1  0  0  6           0  0  0
   -0.9850   -3.3257    8.2013 F   0  0  0  0  0  1           0  0  0
    0.2079   -4.9485    7.3663 F   0  0  0  0  0  1           0  0  0
   -1.9604   -4.9607    7.1327 F   0  0  0  0  0  1           0  0  0
   -0.5824   -4.2528    4.5648 O   0  0  0  0  0  2           0  0  0
    0.3264   -2.2569    5.8101 O   0  0  0  0  0  2           0  0  0
    1.6114    2.9030   -1.4027 O   0  0  0  0  0  2           0  0  0
    1.4522    0.0000    0.0000 N   0  0  0  0  0  3           0  0  0
    3.5396   -0.7595   -0.0143 N   0  0  0  0  0  3           0  0  0
   -2.2525   -2.5272    5.5073 N   0  0  0  0  0  3           0  0  0
    3.5478    0.6103   -0.0330 C   0  0  0  0  0  4           0  0  0
    2.2701   -1.1133    0.0000 C   0  0  0  0  0  4           0  0  0
    2.2624    1.1179   -0.0275 C   0  0  0  0  0  4           0  0  0
   -2.3624   -1.2313    6.1242 C   0  0  0  0  0  4           0  0  0
   -2.0954   -0.0431    5.4059 C   0  0  0  0  0  4           0  0  0
   -1.5631   -0.0295    4.0341 C   0  0  0  0  0  4           0  0  0
   -0.5411   -0.0000    1.3972 C   0  0  0  0  0  4           0  0  0
   -2.8605   -1.1856    7.4358 C   0  0  0  0  0  4           0  0  0
   -2.3388    1.1781    6.0681 C   0  0  0  0  0  4           0  0  0
   -0.1801   -0.0118    3.8002 C   0  0  0  0  0  4           0  0  0
   -2.4272   -0.0384    2.9290 C   0  0  0  0  0  4           0  0  0
    0.3251    0.0000    2.4971 C   0  0  0  0  0  4           0  0  0
   -1.9221   -0.0261    1.6260 C   0  0  0  0  0  4           0  0  0
   -3.0826    0.0371    8.0624 C   0  0  0  0  0  4           0  0  0
   -2.8224    1.2185    7.3786 C   0  0  0  0  0  4           0  0  0
   -0.8687   -4.1580    7.1388 C   0  0  2  0  0  4           0  0  0
    1.7716    2.5121   -0.0456 C   0  0  0  0  0  4           0  0  0
    0.0000    0.0000   -0.0000 C   0  0  0  0  0  4           0  0  0
    1.7869   -2.5212    0.0145 C   0  0  0  0  0  4           0  0  0
    1.5851   -3.0797   -1.3912 C   0  0  0  0  0  4           0  0  0
    2.8517   -3.0929   -2.2478 C   0  0  0  0  0  4           0  0  0
    2.6199   -3.6545   -3.6425 C   0  0  0  0  0  4           0  0  0
  1 12  1  0     0  0
  2  6  2  0     0  0
  2  7  2  0     0  0
  2 11  1  0     0  0
  2 27  1  0     0  0
  3 27  1  0     0  0
  4 27  1  0     0  0
  5 27  1  0     0  0
  8 28  1  0     0  0
  9 13  1  0     0  0
  9 14  1  0     0  0
  9 29  1  0     0  0
 10 12  1  0     0  0
 10 13  2  0     0  0
 11 15  1  0     0  0
 12 14  2  0     0  0
 13 30  1  0     0  0
 14 28  1  0     0  0
 15 16  1  0     0  0
 15 19  2  0     0  0
 16 17  1  0     0  0
 16 20  2  0     0  0
 17 21  2  0     0  0
 17 22  1  0     0  0
 18 23  2  0     0  0
 18 24  1  0     0  0
 18 29  1  0     0  0
 19 25  1  0     0  0
 20 26  1  0     0  0
 21 23  1  0     0  0
 22 24  2  0     0  0
 25 26  2  0     0  0
 30 31  1  0     0  0
 31 32  1  0     0  0
 32 33  1  0     0  0
M  END
> <standard_type>
pIC50

> <# Confs.>
25

> <canonical_smiles>
ClC(N=C1CCCC)=C(CO)N1CC2=CC=C(C3=CC=CC=C3NS(=O)(C(F)(F)F)=O)C=C2

> <standard_relation>
=

> <Publication_ID>
nan

> <predicted_activity_value>
7.022276394711152

> <actual_activity_value>
7.080921907623926

> <Compound>
7

> <standard_units>
nM

> hash
11133345014010873493

$$$$
7_
XXILIB    08252103503D 0   0.00000     0.00000

 33 35  0     1  0            999 V2000
    5.0019    1.4987   -0.0650 Cl  0  0  0  0  0  1           0  0  0
   -3.2943    3.1848    4.6776 S   0  0  1  0  0  6           0  0  0
   -4.8225    3.1985    6.7764 F   0  0  0  0  0  1           0  0  0
   -5.1508    4.8433    5.3832 F   0  0  0  0  0  1           0  0  0
   -3.3925    4.8450    6.6735 F   0  0  0  0  0  1           0  0  0
   -2.6732    4.1904    3.8367 O   0  0  0  0  0  2           0  0  0
   -4.1708    2.1796    4.1086 O   0  0  0  0  0  2           0  0  0
    1.6114    2.9030   -1.4027 O   0  0  0  0  0  2           0  0  0
    1.4522    0.0000    0.0000 N   0  0  0  0  0  3           0  0  0
    3.5396   -0.7595   -0.0143 N   0  0  0  0  0  3           0  0  0
   -2.0644    2.4378    5.6292 N   0  0  0  0  0  3           0  0  0
    3.5478    0.6103   -0.0330 C   0  0  0  0  0  4           0  0  0
    2.2701   -1.1133    0.0000 C   0  0  0  0  0  4           0  0  0
    2.2624    1.1179   -0.0275 C   0  0  0  0  0  4           0  0  0
   -2.3907    1.1309    6.1365 C   0  0  0  0  0  4           0  0  0
   -2.0954   -0.0431    5.4059 C   0  0  0  0  0  4           0  0  0
   -1.5631   -0.0295    4.0341 C   0  0  0  0  0  4           0  0  0
   -0.5411    0.0000    1.3972 C   0  0  0  0  0  4           0  0  0
   -2.9073    1.0594    7.4397 C   0  0  0  0  0  4           0  0  0
   -2.3542   -1.2769    6.0379 C   0  0  0  0  0  4           0  0  0
   -0.1801   -0.0118    3.8002 C   0  0  0  0  0  4           0  0  0
   -2.4272   -0.0384    2.9290 C   0  0  0  0  0  4           0  0  0
    0.3251   -0.0000    2.4971 C   0  0  0  0  0  4           0  0  0
   -1.9221   -0.0261    1.6260 C   0  0  0  0  0  4           0  0  0
   -3.1578   -0.1753    8.0311 C   0  0  0  0  0  4           0  0  0
   -2.8809   -1.3430    7.3307 C   0  0  0  0  0  4           0  0  0
   -4.1972    4.0497    5.9280 C   0  0  2  0  0  4           0  0  0
    1.7716    2.5121   -0.0456 C   0  0  0  0  0  4           0  0  0
    0.0000    0.0000    0.0000 C   0  0  0  0  0  4           0  0  0
    1.7869   -2.5212    0.0145 C   0  0  0  0  0  4           0  0  0
    2.9337   -3.5280    0.0106 C   0  0  0  0  0  4           0  0  0
    2.4841   -4.9895    0.0252 C   0  0  0  0  0  4           0  0  0
    3.6480   -5.9691    0.0209 C   0  0  0  0  0  4           0  0  0
  1 12  1  0     0  0
  2  6  2  0     0  0
  2  7  2  0     0  0
  2 11  1  0     0  0
  2 27  1  0     0  0
  3 27  1  0     0  0
  4 27  1  0     0  0
  5 27  1  0     0  0
  8 28  1  0     0  0
  9 13  1  0     0  0
  9 14  1  0     0  0
  9 29  1  0     0  0
 10 12  1  0     0  0
 10 13  2  0     0  0
 11 15  1  0     0  0
 12 14  2  0     0  0
 13 30  1  0     0  0
 14 28  1  0     0  0
 15 16  1  0     0  0
 15 19  2  0     0  0
 16 17  1  0     0  0
 16 20  2  0     0  0
 17 21  2  0     0  0
 17 22  1  0     0  0
 18 23  2  0     0  0
 18 24  1  0     0  0
 18 29  1  0     0  0
 19 25  1  0     0  0
 20 26  1  0     0  0
 21 23  1  0     0  0
 22 24  2  0     0  0
 25 26  2  0     0  0
 30 31  1  0     0  0
 31 32  1  0     0  0
 32 33  1  0     0  0
M  END
> <standard_type>
pIC50

> <# Confs.>
25

> <canonical_smiles>
ClC(N=C1CCCC)=C(CO)N1CC2=CC=C(C3=CC=CC=C3NS(=O)(C(F)(F)F)=O)C=C2

> <standard_relation>
=

> <Publication_ID>
nan

> <predicted_activity_value>
7.022276394711152

> <actual_activity_value>
7.080921907623926

> <Compound>
7

> <standard_units>
nM

> hash
11133345014010873493

$$$$
7_
XXILIB    08252103503D 0   0.00000     0.00000

 33 35  0     1  0            999 V2000
    5.0019    1.4987   -0.0650 Cl  0  0  0  0  0  1           0  0  0
   -0.6977   -3.2659    5.6217 S   0  0  1  0  0  6           0  0  0
   -0.9850   -3.3257    8.2013 F   0  0  0  0  0  1           0  0  0
    0.2079   -4.9485    7.3663 F   0  0  0  0  0  1           0  0  0
   -1.9604   -4.9607    7.1327 F   0  0  0  0  0  1           0  0  0
   -0.5824   -4.2528    4.5648 O   0  0  0  0  0  2           0  0  0
    0.3264   -2.2569    5.8101 O   0  0  0  0  0  2           0  0  0
    1.6114    2.9030   -1.4027 O   0  0  0  0  0  2           0  0  0
    1.4522    0.0000    0.0000 N   0  0  0  0  0  3           0  0  0
    3.5396   -0.7595   -0.0143 N   0  0  0  0  0  3           0  0  0
   -2.2525   -2.5272    5.5073 N   0  0  0  0  0  3           0  0  0
    3.5478    0.6103   -0.0330 C   0  0  0  0  0  4           0  0  0
    2.2701   -1.1133    0.0000 C   0  0  0  0  0  4           0  0  0
    2.2624    1.1179   -0.0275 C   0  0  0  0  0  4           0  0  0
   -2.3624   -1.2313    6.1242 C   0  0  0  0  0  4           0  0  0
   -2.0954   -0.0431    5.4059 C   0  0  0  0  0  4           0  0  0
   -1.5631   -0.0295    4.0341 C   0  0  0  0  0  4           0  0  0
   -0.5411   -0.0000    1.3972 C   0  0  0  0  0  4           0  0  0
   -2.8605   -1.1856    7.4358 C   0  0  0  0  0  4           0  0  0
   -2.3388    1.1781    6.0681 C   0  0  0  0  0  4           0  0  0
   -0.1801   -0.0118    3.8002 C   0  0  0  0  0  4           0  0  0
   -2.4272   -0.0384    2.9290 C   0  0  0  0  0  4           0  0  0
    0.3251    0.0000    2.4971 C   0  0  0  0  0  4           0  0  0
   -1.9221   -0.0261    1.6260 C   0  0  0  0  0  4           0  0  0
   -3.0826    0.0371    8.0624 C   0  0  0  0  0  4           0  0  0
   -2.8224    1.2185    7.3786 C   0  0  0  0  0  4           0  0  0
   -0.8687   -4.1580    7.1388 C   0  0  2  0  0  4           0  0  0
    1.7716    2.5121   -0.0456 C   0  0  0  0  0  4           0  0  0
    0.0000    0.0000   -0.0000 C   0  0  0  0  0  4           0  0  0
    1.7869   -2.5212    0.0145 C   0  0  0  0  0  4           0  0  0
    2.5522   -3.3868    1.0114 C   0  0  0  0  0  4           0  0  0
    2.0894   -4.8434    1.0609 C   0  0  0  0  0  4           0  0  0
    2.8698   -5.6810    2.0627 C   0  0  0  0  0  4           0  0  0
  1 12  1  0     0  0
  2  6  2  0     0  0
  2  7  2  0     0  0
  2 11  1  0     0  0
  2 27  1  0     0  0
  3 27  1  0     0  0
  4 27  1  0     0  0
  5 27  1  0     0  0
  8 28  1  0     0  0
  9 13  1  0     0  0
  9 14  1  0     0  0
  9 29  1  0     0  0
 10 12  1  0     0  0
 10 13  2  0     0  0
 11 15  1  0     0  0
 12 14  2  0     0  0
 13 30  1  0     0  0
 14 28  1  0     0  0
 15 16  1  0     0  0
 15 19  2  0     0  0
 16 17  1  0     0  0
 16 20  2  0     0  0
 17 21  2  0     0  0
 17 22  1  0     0  0
 18 23  2  0     0  0
 18 24  1  0     0  0
 18 29  1  0     0  0
 19 25  1  0     0  0
 20 26  1  0     0  0
 21 23  1  0     0  0
 22 24  2  0     0  0
 25 26  2  0     0  0
 30 31  1  0     0  0
 31 32  1  0     0  0
 32 33  1  0     0  0
M  END
> <standard_type>
pIC50

> <# Confs.>
25

> <canonical_smiles>
ClC(N=C1CCCC)=C(CO)N1CC2=CC=C(C3=CC=CC=C3NS(=O)(C(F)(F)F)=O)C=C2

> <standard_relation>
=

> <Publication_ID>
nan

> <predicted_activity_value>
7.022276394711152

> <actual_activity_value>
7.080921907623926

> <Compound>
7

> <standard_units>
nM

> hash
11133345014010873493

$$$$
6_
XXILIB    08252103503D 0   0.00000     0.00000

 28 30  0     1  0            999 V2000
    4.9767    1.5665   -0.1556 Cl  0  0  0  0  0  1           0  0  0
   -5.0983    0.0139    4.0109 O   0  0  0  0  0  2           0  0  0
   -4.4712   -2.1150    4.4765 O   0  0  0  0  0  2           0  0  0
    1.5326    2.9244   -1.3730 O   0  0  0  0  0  2           0  0  0
    1.4552    0.0000    0.0000 N   0  0  0  0  0  3           0  0  0
    3.5567   -0.7165   -0.0626 N   0  0  0  0  0  3           0  0  0
    3.5404    0.6520   -0.0830 C   0  0  0  0  0  4           0  0  0
    2.2952   -1.1045    0.0000 C   0  0  0  0  0  4           0  0  0
    2.2476    1.1344   -0.0369 C   0  0  0  0  0  4           0  0  0
   -2.1248   -0.0336    5.3906 C   0  0  0  0  0  4           0  0  0
   -1.5855   -0.0233    4.0248 C   0  0  0  0  0  4           0  0  0
   -3.4710   -0.3321    5.6973 C   0  0  0  0  0  4           0  0  0
   -0.5420    0.0000    1.3967 C   0  0  0  0  0  4           0  0  0
   -1.2764    0.2968    6.4670 C   0  0  0  0  0  4           0  0  0
   -2.1086    0.8424    3.0527 C   0  0  0  0  0  4           0  0  0
   -0.5360   -0.8803    3.6616 C   0  0  0  0  0  4           0  0  0
   -3.9395   -0.2933    7.0203 C   0  0  0  0  0  4           0  0  0
   -1.5945    0.8522    1.7530 C   0  0  0  0  0  4           0  0  0
   -0.0218   -0.8708    2.3619 C   0  0  0  0  0  4           0  0  0
   -1.7447    0.3369    7.7829 C   0  0  0  0  0  4           0  0  0
   -3.0759    0.0456    8.0583 C   0  0  0  0  0  4           0  0  0
   -4.4191   -0.7738    4.6537 C   0  0  0  0  0  4           0  0  0
    1.7359    2.5214   -0.0253 C   0  0  0  0  0  4           0  0  0
    0.0000    0.0000    0.0000 C   0  0  0  0  0  4           0  0  0
    1.7776   -2.4166    0.0687 C   0  0  0  0  0  4           0  0  0
    2.3786   -3.4835    0.6190 C   0  0  0  0  0  4           0  0  0
    3.6881   -3.5774    1.3392 C   0  0  0  0  0  4           0  0  0
    4.8306   -3.8755    0.3808 C   0  0  0  0  0  4           0  0  0
  1  7  1  0     0  0
  2 22  2  0     0  0
  3 22  1  0     0  0
  4 23  1  0     0  0
  5  8  1  0     0  0
  5  9  1  0     0  0
  5 24  1  0     0  0
  6  7  1  0     0  0
  6  8  2  0     0  0
  7  9  2  0     0  0
  8 25  1  0     0  0
  9 23  1  0     0  0
 10 11  1  0     0  0
 10 12  1  0     0  0
 10 14  2  0     0  0
 11 15  2  0     0  0
 11 16  1  0     0  0
 12 17  2  0     0  0
 12 22  1  0     0  0
 13 18  2  0     0  0
 13 19  1  0     0  0
 13 24  1  0     0  0
 14 20  1  0     0  0
 15 18  1  0     0  0
 16 19  2  0     0  0
 17 21  1  0     0  0
 20 21  2  0     0  0
 25 26  2  0     0  0
 26 27  1  0     0  0
 27 28  1  0     0  0
M  END
> <standard_type>
pIC50

> <# Confs.>
25

> <canonical_smiles>
ClC(N=C1/C=C/CC)=C(CO)N1CC2=CC=C(C3=CC=CC=C3C(O)=O)C=C2

> <standard_relation>
=

> <Publication_ID>
nan

> <predicted_activity_value>
7.0

> <actual_activity_value>
7.096910013008056

> <Compound>
6

> <standard_units>
nM

> hash
11452218105267670370

$$$$
6_
XXILIB    08252103503D 0   0.00000     0.00000

 28 30  0     1  0            999 V2000
    4.9767    1.5665   -0.1556 Cl  0  0  0  0  0  1           0  0  0
   -2.4316    3.2277    5.2594 O   0  0  0  0  0  2           0  0  0
   -0.3444    2.6490    5.9307 O   0  0  0  0  0  2           0  0  0
    1.5326    2.9244   -1.3730 O   0  0  0  0  0  2           0  0  0
    1.4552    0.0000    0.0000 N   0  0  0  0  0  3           0  0  0
    3.5567   -0.7165   -0.0626 N   0  0  0  0  0  3           0  0  0
    3.5404    0.6520   -0.0830 C   0  0  0  0  0  4           0  0  0
    2.2952   -1.1045    0.0000 C   0  0  0  0  0  4           0  0  0
    2.2476    1.1344   -0.0369 C   0  0  0  0  0  4           0  0  0
   -2.1248   -0.0336    5.3906 C   0  0  0  0  0  4           0  0  0
   -1.5855   -0.0233    4.0248 C   0  0  0  0  0  4           0  0  0
   -2.1210    1.0943    6.2411 C   0  0  0  0  0  4           0  0  0
   -0.5420    0.0000    1.3967 C   0  0  0  0  0  4           0  0  0
   -2.6550   -1.2317    5.9112 C   0  0  0  0  0  4           0  0  0
   -2.1086    0.8424    3.0527 C   0  0  0  0  0  4           0  0  0
   -0.5360   -0.8803    3.6616 C   0  0  0  0  0  4           0  0  0
   -2.6200    1.0168    7.5511 C   0  0  0  0  0  4           0  0  0
   -1.5945    0.8522    1.7530 C   0  0  0  0  0  4           0  0  0
   -0.0218   -0.8708    2.3619 C   0  0  0  0  0  4           0  0  0
   -3.1495   -1.3077    7.2159 C   0  0  0  0  0  4           0  0  0
   -3.1284   -0.1851    8.0358 C   0  0  0  0  0  4           0  0  0
   -1.6678    2.4172    5.7641 C   0  0  0  0  0  4           0  0  0
    1.7359    2.5214   -0.0253 C   0  0  0  0  0  4           0  0  0
    0.0000    0.0000    0.0000 C   0  0  0  0  0  4           0  0  0
    1.7776   -2.4166    0.0687 C   0  0  0  0  0  4           0  0  0
    2.3786   -3.4835    0.6190 C   0  0  0  0  0  4           0  0  0
    3.6881   -3.5774    1.3392 C   0  0  0  0  0  4           0  0  0
    4.8306   -3.8755    0.3808 C   0  0  0  0  0  4           0  0  0
  1  7  1  0     0  0
  2 22  2  0     0  0
  3 22  1  0     0  0
  4 23  1  0     0  0
  5  8  1  0     0  0
  5  9  1  0     0  0
  5 24  1  0     0  0
  6  7  1  0     0  0
  6  8  2  0     0  0
  7  9  2  0     0  0
  8 25  1  0     0  0
  9 23  1  0     0  0
 10 11  1  0     0  0
 10 12  1  0     0  0
 10 14  2  0     0  0
 11 15  2  0     0  0
 11 16  1  0     0  0
 12 17  2  0     0  0
 12 22  1  0     0  0
 13 18  2  0     0  0
 13 19  1  0     0  0
 13 24  1  0     0  0
 14 20  1  0     0  0
 15 18  1  0     0  0
 16 19  2  0     0  0
 17 21  1  0     0  0
 20 21  2  0     0  0
 25 26  2  0     0  0
 26 27  1  0     0  0
 27 28  1  0     0  0
M  END
> <standard_type>
pIC50

> <# Confs.>
25

> <canonical_smiles>
ClC(N=C1/C=C/CC)=C(CO)N1CC2=CC=C(C3=CC=CC=C3C(O)=O)C=C2

> <standard_relation>
=

> <Publication_ID>
nan

> <predicted_activity_value>
7.0

> <actual_activity_value>
7.096910013008056

> <Compound>
6

> <standard_units>
nM

> hash
11452218105267670370

$$$$
6_
XXILIB    08252103503D 0   0.00000     0.00000

 28 30  0     1  0            999 V2000
    4.9767    1.5665   -0.1556 Cl  0  0  0  0  0  1           0  0  0
   -5.0983    0.0139    4.0109 O   0  0  0  0  0  2           0  0  0
   -4.4712   -2.1150    4.4765 O   0  0  0  0  0  2           0  0  0
    1.5326    2.9244   -1.3730 O   0  0  0  0  0  2           0  0  0
    1.4552    0.0000    0.0000 N   0  0  0  0  0  3           0  0  0
    3.5567   -0.7165   -0.0626 N   0  0  0  0  0  3           0  0  0
    3.5404    0.6520   -0.0830 C   0  0  0  0  0  4           0  0  0
    2.2952   -1.1045    0.0000 C   0  0  0  0  0  4           0  0  0
    2.2476    1.1344   -0.0369 C   0  0  0  0  0  4           0  0  0
   -2.1248   -0.0336    5.3906 C   0  0  0  0  0  4           0  0  0
   -1.5855   -0.0233    4.0248 C   0  0  0  0  0  4           0  0  0
   -3.4710   -0.3321    5.6973 C   0  0  0  0  0  4           0  0  0
   -0.5420    0.0000    1.3967 C   0  0  0  0  0  4           0  0  0
   -1.2764    0.2968    6.4670 C   0  0  0  0  0  4           0  0  0
   -2.1086    0.8424    3.0527 C   0  0  0  0  0  4           0  0  0
   -0.5360   -0.8803    3.6616 C   0  0  0  0  0  4           0  0  0
   -3.9395   -0.2933    7.0203 C   0  0  0  0  0  4           0  0  0
   -1.5945    0.8522    1.7530 C   0  0  0  0  0  4           0  0  0
   -0.0218   -0.8708    2.3619 C   0  0  0  0  0  4           0  0  0
   -1.7447    0.3369    7.7829 C   0  0  0  0  0  4           0  0  0
   -3.0759    0.0456    8.0583 C   0  0  0  0  0  4           0  0  0
   -4.4191   -0.7738    4.6537 C   0  0  0  0  0  4           0  0  0
    1.7359    2.5214   -0.0253 C   0  0  0  0  0  4           0  0  0
    0.0000    0.0000    0.0000 C   0  0  0  0  0  4           0  0  0
    1.7776   -2.4166    0.0687 C   0  0  0  0  0  4           0  0  0
    2.3786   -3.4835    0.6190 C   0  0  0  0  0  4           0  0  0
    3.6881   -3.5774    1.3392 C   0  0  0  0  0  4           0  0  0
    3.5195   -3.3491    2.8333 C   0  0  0  0  0  4           0  0  0
  1  7  1  0     0  0
  2 22  2  0     0  0
  3 22  1  0     0  0
  4 23  1  0     0  0
  5  8  1  0     0  0
  5  9  1  0     0  0
  5 24  1  0     0  0
  6  7  1  0     0  0
  6  8  2  0     0  0
  7  9  2  0     0  0
  8 25  1  0     0  0
  9 23  1  0     0  0
 10 11  1  0     0  0
 10 12  1  0     0  0
 10 14  2  0     0  0
 11 15  2  0     0  0
 11 16  1  0     0  0
 12 17  2  0     0  0
 12 22  1  0     0  0
 13 18  2  0     0  0
 13 19  1  0     0  0
 13 24  1  0     0  0
 14 20  1  0     0  0
 15 18  1  0     0  0
 16 19  2  0     0  0
 17 21  1  0     0  0
 20 21  2  0     0  0
 25 26  2  0     0  0
 26 27  1  0     0  0
 27 28  1  0     0  0
M  END
> <standard_type>
pIC50

> <# Confs.>
25

> <canonical_smiles>
ClC(N=C1/C=C/CC)=C(CO)N1CC2=CC=C(C3=CC=CC=C3C(O)=O)C=C2

> <standard_relation>
=

> <Publication_ID>
nan

> <predicted_activity_value>
7.0

> <actual_activity_value>
7.096910013008056

> <Compound>
6

> <standard_units>
nM

> hash
11452218105267670370

$$$$
6_
XXILIB    08252103503D 0   0.00000     0.00000

 28 30  0     1  0            999 V2000
    4.9767   -1.2177   -0.9976 Cl  0  0  0  0  0  1           0  0  0
   -2.4316    3.2277    5.2594 O   0  0  0  0  0  2           0  0  0
   -0.3444    2.6490    5.9307 O   0  0  0  0  0  2           0  0  0
    1.5326   -3.0387   -1.0970 O   0  0  0  0  0  2           0  0  0
    1.4552   -0.0000   -0.0000 N   0  0  0  0  0  3           0  0  0
    3.5567    0.4624    0.5509 N   0  0  0  0  0  3           0  0  0
    3.5404   -0.5197   -0.4024 C   0  0  0  0  0  4           0  0  0
    2.2952    0.7810    0.7810 C   0  0  0  0  0  4           0  0  0
    2.2476   -0.8283   -0.7761 C   0  0  0  0  0  4           0  0  0
   -2.1248   -0.0336    5.3906 C   0  0  0  0  0  4           0  0  0
   -1.5855   -0.0233    4.0248 C   0  0  0  0  0  4           0  0  0
   -2.1210    1.0943    6.2411 C   0  0  0  0  0  4           0  0  0
   -0.5420    0.0000    1.3967 C   0  0  0  0  0  4           0  0  0
   -2.6550   -1.2317    5.9112 C   0  0  0  0  0  4           0  0  0
   -2.1086    0.8424    3.0527 C   0  0  0  0  0  4           0  0  0
   -0.5360   -0.8803    3.6616 C   0  0  0  0  0  4           0  0  0
   -2.6200    1.0168    7.5511 C   0  0  0  0  0  4           0  0  0
   -1.5945    0.8522    1.7530 C   0  0  0  0  0  4           0  0  0
   -0.0218   -0.8708    2.3619 C   0  0  0  0  0  4           0  0  0
   -3.1495   -1.3077    7.2159 C   0  0  0  0  0  4           0  0  0
   -3.1284   -0.1851    8.0358 C   0  0  0  0  0  4           0  0  0
   -1.6678    2.4172    5.7641 C   0  0  0  0  0  4           0  0  0
    1.7359   -1.8008   -1.7650 C   0  0  0  0  0  4           0  0  0
    0.0000    0.0000    0.0000 C   0  0  0  0  0  4           0  0  0
    1.7776    1.7574    1.6602 C   0  0  0  0  0  4           0  0  0
    2.3297    2.1650    2.8140 C   0  0  0  0  0  4           0  0  0
    3.6255    1.7637    3.4480 C   0  0  0  0  0  4           0  0  0
    3.4476    0.5671    4.3696 C   0  0  0  0  0  4           0  0  0
  1  7  1  0     0  0
  2 22  2  0     0  0
  3 22  1  0     0  0
  4 23  1  0     0  0
  5  8  1  0     0  0
  5  9  1  0     0  0
  5 24  1  0     0  0
  6  7  1  0     0  0
  6  8  2  0     0  0
  7  9  2  0     0  0
  8 25  1  0     0  0
  9 23  1  0     0  0
 10 11  1  0     0  0
 10 12  1  0     0  0
 10 14  2  0     0  0
 11 15  2  0     0  0
 11 16  1  0     0  0
 12 17  2  0     0  0
 12 22  1  0     0  0
 13 18  2  0     0  0
 13 19  1  0     0  0
 13 24  1  0     0  0
 14 20  1  0     0  0
 15 18  1  0     0  0
 16 19  2  0     0  0
 17 21  1  0     0  0
 20 21  2  0     0  0
 25 26  2  0     0  0
 26 27  1  0     0  0
 27 28  1  0     0  0
M  END
> <standard_type>
pIC50

> <# Confs.>
25

> <canonical_smiles>
ClC(N=C1/C=C/CC)=C(CO)N1CC2=CC=C(C3=CC=CC=C3C(O)=O)C=C2

> <standard_relation>
=

> <Publication_ID>
nan

> <predicted_activity_value>
7.0

> <actual_activity_value>
7.096910013008056

> <Compound>
6

> <standard_units>
nM

> hash
11452218105267670370

$$$$
6_
XXILIB    08252103503D 0   0.00000     0.00000

 28 30  0     1  0            999 V2000
    4.9767    1.5665   -0.1556 Cl  0  0  0  0  0  1           0  0  0
   -2.4316    3.2277    5.2594 O   0  0  0  0  0  2           0  0  0
   -0.3444    2.6490    5.9307 O   0  0  0  0  0  2           0  0  0
    1.5326    2.9244   -1.3730 O   0  0  0  0  0  2           0  0  0
    1.4552    0.0000    0.0000 N   0  0  0  0  0  3           0  0  0
    3.5567   -0.7165   -0.0626 N   0  0  0  0  0  3           0  0  0
    3.5404    0.6520   -0.0830 C   0  0  0  0  0  4           0  0  0
    2.2952   -1.1045    0.0000 C   0  0  0  0  0  4           0  0  0
    2.2476    1.1344   -0.0369 C   0  0  0  0  0  4           0  0  0
   -2.1248   -0.0336    5.3906 C   0  0  0  0  0  4           0  0  0
   -1.5855   -0.0233    4.0248 C   0  0  0  0  0  4           0  0  0
   -2.1210    1.0943    6.2411 C   0  0  0  0  0  4           0  0  0
   -0.5420    0.0000    1.3967 C   0  0  0  0  0  4           0  0  0
   -2.6550   -1.2317    5.9112 C   0  0  0  0  0  4           0  0  0
   -2.1086    0.8424    3.0527 C   0  0  0  0  0  4           0  0  0
   -0.5360   -0.8803    3.6616 C   0  0  0  0  0  4           0  0  0
   -2.6200    1.0168    7.5511 C   0  0  0  0  0  4           0  0  0
   -1.5945    0.8522    1.7530 C   0  0  0  0  0  4           0  0  0
   -0.0218   -0.8708    2.3619 C   0  0  0  0  0  4           0  0  0
   -3.1495   -1.3077    7.2159 C   0  0  0  0  0  4           0  0  0
   -3.1284   -0.1851    8.0358 C   0  0  0  0  0  4           0  0  0
   -1.6678    2.4172    5.7641 C   0  0  0  0  0  4           0  0  0
    1.7359    2.5214   -0.0253 C   0  0  0  0  0  4           0  0  0
    0.0000    0.0000    0.0000 C   0  0  0  0  0  4           0  0  0
    1.7776   -2.4166    0.0687 C   0  0  0  0  0  4           0  0  0
    2.3786   -3.4835    0.6190 C   0  0  0  0  0  4           0  0  0
    3.6881   -3.5774    1.3392 C   0  0  0  0  0  4           0  0  0
    3.5195   -3.3491    2.8333 C   0  0  0  0  0  4           0  0  0
  1  7  1  0     0  0
  2 22  2  0     0  0
  3 22  1  0     0  0
  4 23  1  0     0  0
  5  8  1  0     0  0
  5  9  1  0     0  0
  5 24  1  0     0  0
  6  7  1  0     0  0
  6  8  2  0     0  0
  7  9  2  0     0  0
  8 25  1  0     0  0
  9 23  1  0     0  0
 10 11  1  0     0  0
 10 12  1  0     0  0
 10 14  2  0     0  0
 11 15  2  0     0  0
 11 16  1  0     0  0
 12 17  2  0     0  0
 12 22  1  0     0  0
 13 18  2  0     0  0
 13 19  1  0     0  0
 13 24  1  0     0  0
 14 20  1  0     0  0
 15 18  1  0     0  0
 16 19  2  0     0  0
 17 21  1  0     0  0
 20 21  2  0     0  0
 25 26  2  0     0  0
 26 27  1  0     0  0
 27 28  1  0     0  0
M  END
> <standard_type>
pIC50

> <# Confs.>
25

> <canonical_smiles>
ClC(N=C1/C=C/CC)=C(CO)N1CC2=CC=C(C3=CC=CC=C3C(O)=O)C=C2

> <standard_relation>
=

> <Publication_ID>
nan

> <predicted_activity_value>
7.0

> <actual_activity_value>
7.096910013008056

> <Compound>
6

> <standard_units>
nM

> hash
11452218105267670370

$$$$
6_
XXILIB    08252103503D 0   0.00000     0.00000

 28 30  0     1  0            999 V2000
    4.9767    1.5665   -0.1556 Cl  0  0  0  0  0  1           0  0  0
   -2.8878    2.8915    4.5188 O   0  0  0  0  0  2           0  0  0
   -1.3316    3.3730    6.0962 O   0  0  0  0  0  2           0  0  0
    1.5326    2.9244   -1.3730 O   0  0  0  0  0  2           0  0  0
    1.4552    0.0000    0.0000 N   0  0  0  0  0  3           0  0  0
    3.5567   -0.7165   -0.0626 N   0  0  0  0  0  3           0  0  0
    3.5404    0.6520   -0.0830 C   0  0  0  0  0  4           0  0  0
    2.2952   -1.1045    0.0000 C   0  0  0  0  0  4           0  0  0
    2.2476    1.1344   -0.0369 C   0  0  0  0  0  4           0  0  0
   -2.0983    0.0453    5.4009 C   0  0  0  0  0  4           0  0  0
   -1.5660    0.0320    4.0324 C   0  0  0  0  0  4           0  0  0
   -2.3668    1.2289    6.1237 C   0  0  0  0  0  4           0  0  0
   -0.5420    0.0000    1.3967 C   0  0  0  0  0  4           0  0  0
   -2.3355   -1.1792    6.0581 C   0  0  0  0  0  4           0  0  0
   -0.1826    0.0134    3.8002 C   0  0  0  0  0  4           0  0  0
   -2.4293    0.0391    2.9268 C   0  0  0  0  0  4           0  0  0
   -2.8437    1.1806    7.4434 C   0  0  0  0  0  4           0  0  0
    0.3236    0.0000    2.4974 C   0  0  0  0  0  4           0  0  0
   -1.9234    0.0259    1.6239 C   0  0  0  0  0  4           0  0  0
   -2.8082   -1.2255    7.3721 C   0  0  0  0  0  4           0  0  0
   -3.0584   -0.0464    8.0649 C   0  0  0  0  0  4           0  0  0
   -2.2343    2.5607    5.4977 C   0  0  0  0  0  4           0  0  0
    1.7359    2.5214   -0.0253 C   0  0  0  0  0  4           0  0  0
    0.0000    0.0000    0.0000 C   0  0  0  0  0  4           0  0  0
    1.7776   -2.4166    0.0687 C   0  0  0  0  0  4           0  0  0
    2.3297   -3.5207   -0.4589 C   0  0  0  0  0  4           0  0  0
    3.6255   -3.6853   -1.1910 C   0  0  0  0  0  4           0  0  0
    4.7673   -4.0022   -0.2378 C   0  0  0  0  0  4           0  0  0
  1  7  1  0     0  0
  2 22  2  0     0  0
  3 22  1  0     0  0
  4 23  1  0     0  0
  5  8  1  0     0  0
  5  9  1  0     0  0
  5 24  1  0     0  0
  6  7  1  0     0  0
  6  8  2  0     0  0
  7  9  2  0     0  0
  8 25  1  0     0  0
  9 23  1  0     0  0
 10 11  1  0     0  0
 10 12  1  0     0  0
 10 14  2  0     0  0
 11 15  2  0     0  0
 11 16  1  0     0  0
 12 17  2  0     0  0
 12 22  1  0     0  0
 13 18  2  0     0  0
 13 19  1  0     0  0
 13 24  1  0     0  0
 14 20  1  0     0  0
 15 18  1  0     0  0
 16 19  2  0     0  0
 17 21  1  0     0  0
 20 21  2  0     0  0
 25 26  2  0     0  0
 26 27  1  0     0  0
 27 28  1  0     0  0
M  END
> <standard_type>
pIC50

> <# Confs.>
25

> <canonical_smiles>
ClC(N=C1/C=C/CC)=C(CO)N1CC2=CC=C(C3=CC=CC=C3C(O)=O)C=C2

> <standard_relation>
=

> <Publication_ID>
nan

> <predicted_activity_value>
7.0

> <actual_activity_value>
7.096910013008056

> <Compound>
6

> <standard_units>
nM

> hash
11452218105267670370

$$$$
6_
XXILIB    08252103503D 0   0.00000     0.00000

 28 30  0     1  0            999 V2000
    4.9767   -1.5665    0.1556 Cl  0  0  0  0  0  1           0  0  0
   -3.9799   -2.5398    4.6585 O   0  0  0  0  0  2           0  0  0
   -4.9944   -0.5829    4.1261 O   0  0  0  0  0  2           0  0  0
    1.5326   -2.9244    1.3730 O   0  0  0  0  0  2           0  0  0
    1.4552   -0.0000   -0.0000 N   0  0  0  0  0  3           0  0  0
    3.5567    0.7165    0.0626 N   0  0  0  0  0  3           0  0  0
    3.5404   -0.6520    0.0830 C   0  0  0  0  0  4           0  0  0
    2.2952    1.1045    0.0000 C   0  0  0  0  0  4           0  0  0
    2.2476   -1.1344    0.0369 C   0  0  0  0  0  4           0  0  0
   -2.0541    0.0021    5.4181 C   0  0  0  0  0  4           0  0  0
   -1.5352    0.0010    4.0443 C   0  0  0  0  0  4           0  0  0
   -3.2891   -0.5753    5.7878 C   0  0  0  0  0  4           0  0  0
   -0.5420    0.0000    1.3967 C   0  0  0  0  0  4           0  0  0
   -1.3075    0.6330    6.4341 C   0  0  0  0  0  4           0  0  0
   -1.2932   -1.2047    3.3692 C   0  0  0  0  0  4           0  0  0
   -1.2687    1.2058    3.3772 C   0  0  0  0  0  4           0  0  0
   -3.7509   -0.5143    7.1123 C   0  0  0  0  0  4           0  0  0
   -0.8000   -1.2052    2.0614 C   0  0  0  0  0  4           0  0  0
   -0.7753    1.2056    2.0695 C   0  0  0  0  0  4           0  0  0
   -1.7695    0.6946    7.7514 C   0  0  0  0  0  4           0  0  0
   -2.9918    0.1245    8.0888 C   0  0  0  0  0  4           0  0  0
   -4.1057   -1.3341    4.8180 C   0  0  0  0  0  4           0  0  0
    1.7359   -2.5214    0.0253 C   0  0  0  0  0  4           0  0  0
   -0.0000    0.0000    0.0000 C   0  0  0  0  0  4           0  0  0
    1.7776    2.4166   -0.0687 C   0  0  0  0  0  4           0  0  0
    2.3297    3.5207    0.4589 C   0  0  0  0  0  4           0  0  0
    3.6255    3.6853    1.1910 C   0  0  0  0  0  4           0  0  0
    3.4476    3.4907    2.6888 C   0  0  0  0  0  4           0  0  0
  1  7  1  0     0  0
  2 22  2  0     0  0
  3 22  1  0     0  0
  4 23  1  0     0  0
  5  8  1  0     0  0
  5  9  1  0     0  0
  5 24  1  0     0  0
  6  7  1  0     0  0
  6  8  2  0     0  0
  7  9  2  0     0  0
  8 25  1  0     0  0
  9 23  1  0     0  0
 10 11  1  0     0  0
 10 12  1  0     0  0
 10 14  2  0     0  0
 11 15  2  0     0  0
 11 16  1  0     0  0
 12 17  2  0     0  0
 12 22  1  0     0  0
 13 18  2  0     0  0
 13 19  1  0     0  0
 13 24  1  0     0  0
 14 20  1  0     0  0
 15 18  1  0     0  0
 16 19  2  0     0  0
 17 21  1  0     0  0
 20 21  2  0     0  0
 25 26  2  0     0  0
 26 27  1  0     0  0
 27 28  1  0     0  0
M  END
> <standard_type>
pIC50

> <# Confs.>
25

> <canonical_smiles>
ClC(N=C1/C=C/CC)=C(CO)N1CC2=CC=C(C3=CC=CC=C3C(O)=O)C=C2

> <standard_relation>
=

> <Publication_ID>
nan

> <predicted_activity_value>
7.0

> <actual_activity_value>
7.096910013008056

> <Compound>
6

> <standard_units>
nM

> hash
11452218105267670370

$$$$
6_
XXILIB    08252103503D 0   0.00000     0.00000

 28 30  0     1  0            999 V2000
    4.9767    1.5665   -0.1556 Cl  0  0  0  0  0  1           0  0  0
   -2.5501   -2.8853    4.5584 O   0  0  0  0  0  2           0  0  0
   -1.2345   -3.1878    6.3805 O   0  0  0  0  0  2           0  0  0
    1.5326    2.9244   -1.3730 O   0  0  0  0  0  2           0  0  0
    1.4552    0.0000    0.0000 N   0  0  0  0  0  3           0  0  0
    3.5567   -0.7165   -0.0626 N   0  0  0  0  0  3           0  0  0
    3.5404    0.6520   -0.0830 C   0  0  0  0  0  4           0  0  0
    2.2952   -1.1045    0.0000 C   0  0  0  0  0  4           0  0  0
    2.2476    1.1344   -0.0369 C   0  0  0  0  0  4           0  0  0
   -2.0983    0.0453    5.4009 C   0  0  0  0  0  4           0  0  0
   -1.5660    0.0320    4.0324 C   0  0  0  0  0  4           0  0  0
   -2.3965   -1.1240    6.1351 C   0  0  0  0  0  4           0  0  0
   -0.5420    0.0000    1.3967 C   0  0  0  0  0  4           0  0  0
   -2.3594    1.2824    6.0247 C   0  0  0  0  0  4           0  0  0
   -0.1826    0.0134    3.8002 C   0  0  0  0  0  4           0  0  0
   -2.4293    0.0391    2.9268 C   0  0  0  0  0  4           0  0  0
   -2.9363   -1.0502    7.4292 C   0  0  0  0  0  4           0  0  0
    0.3236    0.0000    2.4974 C   0  0  0  0  0  4           0  0  0
   -1.9234    0.0259    1.6239 C   0  0  0  0  0  4           0  0  0
   -2.8985    1.3541    7.3119 C   0  0  0  0  0  4           0  0  0
   -3.1899    0.1886    8.0115 C   0  0  0  0  0  4           0  0  0
   -2.0801   -2.4670    5.6068 C   0  0  0  0  0  4           0  0  0
    1.7359    2.5214   -0.0253 C   0  0  0  0  0  4           0  0  0
    0.0000    0.0000    0.0000 C   0  0  0  0  0  4           0  0  0
    1.7776   -2.4166    0.0687 C   0  0  0  0  0  4           0  0  0
    2.3297   -3.5207   -0.4589 C   0  0  0  0  0  4           0  0  0
    3.6255   -3.6853   -1.1910 C   0  0  0  0  0  4           0  0  0
    4.7673   -4.0022   -0.2378 C   0  0  0  0  0  4           0  0  0
  1  7  1  0     0  0
  2 22  2  0     0  0
  3 22  1  0     0  0
  4 23  1  0     0  0
  5  8  1  0     0  0
  5  9  1  0     0  0
  5 24  1  0     0  0
  6  7  1  0     0  0
  6  8  2  0     0  0
  7  9  2  0     0  0
  8 25  1  0     0  0
  9 23  1  0     0  0
 10 11  1  0     0  0
 10 12  1  0     0  0
 10 14  2  0     0  0
 11 15  2  0     0  0
 11 16  1  0     0  0
 12 17  2  0     0  0
 12 22  1  0     0  0
 13 18  2  0     0  0
 13 19  1  0     0  0
 13 24  1  0     0  0
 14 20  1  0     0  0
 15 18  1  0     0  0
 16 19  2  0     0  0
 17 21  1  0     0  0
 20 21  2  0     0  0
 25 26  2  0     0  0
 26 27  1  0     0  0
 27 28  1  0     0  0
M  END
> <standard_type>
pIC50

> <# Confs.>
25

> <canonical_smiles>
ClC(N=C1/C=C/CC)=C(CO)N1CC2=CC=C(C3=CC=CC=C3C(O)=O)C=C2

> <standard_relation>
=

> <Publication_ID>
nan

> <predicted_activity_value>
7.0

> <actual_activity_value>
7.096910013008056

> <Compound>
6

> <standard_units>
nM

> hash
11452218105267670370

$$$$
6_
XXILIB    08252103503D 0   0.00000     0.00000

 28 30  0     1  0            999 V2000
    4.9767   -1.5665    0.1556 Cl  0  0  0  0  0  1           0  0  0
   -3.9799   -2.5398    4.6585 O   0  0  0  0  0  2           0  0  0
   -4.9944   -0.5829    4.1261 O   0  0  0  0  0  2           0  0  0
    1.5326   -2.9244    1.3730 O   0  0  0  0  0  2           0  0  0
    1.4552   -0.0000   -0.0000 N   0  0  0  0  0  3           0  0  0
    3.5567    0.7165    0.0626 N   0  0  0  0  0  3           0  0  0
    3.5404   -0.6520    0.0830 C   0  0  0  0  0  4           0  0  0
    2.2952    1.1045    0.0000 C   0  0  0  0  0  4           0  0  0
    2.2476   -1.1344    0.0369 C   0  0  0  0  0  4           0  0  0
   -2.0541    0.0021    5.4181 C   0  0  0  0  0  4           0  0  0
   -1.5352    0.0010    4.0443 C   0  0  0  0  0  4           0  0  0
   -3.2891   -0.5753    5.7878 C   0  0  0  0  0  4           0  0  0
   -0.5420    0.0000    1.3967 C   0  0  0  0  0  4           0  0  0
   -1.3075    0.6330    6.4341 C   0  0  0  0  0  4           0  0  0
   -1.2932   -1.2047    3.3692 C   0  0  0  0  0  4           0  0  0
   -1.2687    1.2058    3.3772 C   0  0  0  0  0  4           0  0  0
   -3.7509   -0.5143    7.1123 C   0  0  0  0  0  4           0  0  0
   -0.8000   -1.2052    2.0614 C   0  0  0  0  0  4           0  0  0
   -0.7753    1.2056    2.0695 C   0  0  0  0  0  4           0  0  0
   -1.7695    0.6946    7.7514 C   0  0  0  0  0  4           0  0  0
   -2.9918    0.1245    8.0888 C   0  0  0  0  0  4           0  0  0
   -4.1057   -1.3341    4.8180 C   0  0  0  0  0  4           0  0  0
    1.7359   -2.5214    0.0253 C   0  0  0  0  0  4           0  0  0
   -0.0000    0.0000    0.0000 C   0  0  0  0  0  4           0  0  0
    1.7776    2.4166   -0.0687 C   0  0  0  0  0  4           0  0  0
    2.3297    3.5207    0.4589 C   0  0  0  0  0  4           0  0  0
    3.6255    3.6853    1.1910 C   0  0  0  0  0  4           0  0  0
    4.7673    4.0022    0.2378 C   0  0  0  0  0  4           0  0  0
  1  7  1  0     0  0
  2 22  2  0     0  0
  3 22  1  0     0  0
  4 23  1  0     0  0
  5  8  1  0     0  0
  5  9  1  0     0  0
  5 24  1  0     0  0
  6  7  1  0     0  0
  6  8  2  0     0  0
  7  9  2  0     0  0
  8 25  1  0     0  0
  9 23  1  0     0  0
 10 11  1  0     0  0
 10 12  1  0     0  0
 10 14  2  0     0  0
 11 15  2  0     0  0
 11 16  1  0     0  0
 12 17  2  0     0  0
 12 22  1  0     0  0
 13 18  2  0     0  0
 13 19  1  0     0  0
 13 24  1  0     0  0
 14 20  1  0     0  0
 15 18  1  0     0  0
 16 19  2  0     0  0
 17 21  1  0     0  0
 20 21  2  0     0  0
 25 26  2  0     0  0
 26 27  1  0     0  0
 27 28  1  0     0  0
M  END
> <standard_type>
pIC50

> <# Confs.>
25

> <canonical_smiles>
ClC(N=C1/C=C/CC)=C(CO)N1CC2=CC=C(C3=CC=CC=C3C(O)=O)C=C2

> <standard_relation>
=

> <Publication_ID>
nan

> <predicted_activity_value>
7.0

> <actual_activity_value>
7.096910013008056

> <Compound>
6

> <standard_units>
nM

> hash
11452218105267670370

$$$$
6_
XXILIB    08252103503D 0   0.00000     0.00000

 28 30  0     1  0            999 V2000
    4.9767   -1.5665    0.1556 Cl  0  0  0  0  0  1           0  0  0
   -4.9320    0.8934    4.1257 O   0  0  0  0  0  2           0  0  0
   -4.8430   -1.3565    4.3937 O   0  0  0  0  0  2           0  0  0
    1.5326   -2.9244    1.3730 O   0  0  0  0  0  2           0  0  0
    1.4552   -0.0000   -0.0000 N   0  0  0  0  0  3           0  0  0
    3.5567    0.7165    0.0626 N   0  0  0  0  0  3           0  0  0
    3.5404   -0.6520    0.0830 C   0  0  0  0  0  4           0  0  0
    2.2952    1.1045    0.0000 C   0  0  0  0  0  4           0  0  0
    2.2476   -1.1344    0.0369 C   0  0  0  0  0  4           0  0  0
   -2.0541    0.0021    5.4181 C   0  0  0  0  0  4           0  0  0
   -1.5352    0.0010    4.0443 C   0  0  0  0  0  4           0  0  0
   -3.4309    0.0145    5.7337 C   0  0  0  0  0  4           0  0  0
   -0.5420    0.0000    1.3967 C   0  0  0  0  0  4           0  0  0
   -1.1454    0.0198    6.4959 C   0  0  0  0  0  4           0  0  0
   -1.2932   -1.2047    3.3692 C   0  0  0  0  0  4           0  0  0
   -1.2687    1.2058    3.3772 C   0  0  0  0  0  4           0  0  0
   -3.8692    0.0495    7.0671 C   0  0  0  0  0  4           0  0  0
   -0.8000   -1.2052    2.0614 C   0  0  0  0  0  4           0  0  0
   -0.7753    1.2056    2.0695 C   0  0  0  0  0  4           0  0  0
   -1.5833    0.0567    7.8223 C   0  0  0  0  0  4           0  0  0
   -2.9439    0.0752    8.1069 C   0  0  0  0  0  4           0  0  0
   -4.4633   -0.0894    4.6819 C   0  0  0  0  0  4           0  0  0
    1.7359   -2.5214    0.0253 C   0  0  0  0  0  4           0  0  0
   -0.0000    0.0000    0.0000 C   0  0  0  0  0  4           0  0  0
    1.7776    2.4166   -0.0687 C   0  0  0  0  0  4           0  0  0
    2.3297    3.5207    0.4589 C   0  0  0  0  0  4           0  0  0
    3.6255    3.6853    1.1910 C   0  0  0  0  0  4           0  0  0
    3.4476    3.4907    2.6888 C   0  0  0  0  0  4           0  0  0
  1  7  1  0     0  0
  2 22  2  0     0  0
  3 22  1  0     0  0
  4 23  1  0     0  0
  5  8  1  0     0  0
  5  9  1  0     0  0
  5 24  1  0     0  0
  6  7  1  0     0  0
  6  8  2  0     0  0
  7  9  2  0     0  0
  8 25  1  0     0  0
  9 23  1  0     0  0
 10 11  1  0     0  0
 10 12  1  0     0  0
 10 14  2  0     0  0
 11 15  2  0     0  0
 11 16  1  0     0  0
 12 17  2  0     0  0
 12 22  1  0     0  0
 13 18  2  0     0  0
 13 19  1  0     0  0
 13 24  1  0     0  0
 14 20  1  0     0  0
 15 18  1  0     0  0
 16 19  2  0     0  0
 17 21  1  0     0  0
 20 21  2  0     0  0
 25 26  2  0     0  0
 26 27  1  0     0  0
 27 28  1  0     0  0
M  END
> <standard_type>
pIC50

> <# Confs.>
25

> <canonical_smiles>
ClC(N=C1/C=C/CC)=C(CO)N1CC2=CC=C(C3=CC=CC=C3C(O)=O)C=C2

> <standard_relation>
=

> <Publication_ID>
nan

> <predicted_activity_value>
7.0

> <actual_activity_value>
7.096910013008056

> <Compound>
6

> <standard_units>
nM

> hash
11452218105267670370

$$$$
6_
XXILIB    08252103503D 0   0.00000     0.00000

 28 30  0     1  0            999 V2000
    4.9767   -1.5665    0.1556 Cl  0  0  0  0  0  1           0  0  0
   -4.9320    0.8934    4.1257 O   0  0  0  0  0  2           0  0  0
   -4.8430   -1.3565    4.3937 O   0  0  0  0  0  2           0  0  0
    1.5326   -2.9244    1.3730 O   0  0  0  0  0  2           0  0  0
    1.4552   -0.0000   -0.0000 N   0  0  0  0  0  3           0  0  0
    3.5567    0.7165    0.0626 N   0  0  0  0  0  3           0  0  0
    3.5404   -0.6520    0.0830 C   0  0  0  0  0  4           0  0  0
    2.2952    1.1045    0.0000 C   0  0  0  0  0  4           0  0  0
    2.2476   -1.1344    0.0369 C   0  0  0  0  0  4           0  0  0
   -2.0541    0.0021    5.4181 C   0  0  0  0  0  4           0  0  0
   -1.5352    0.0010    4.0443 C   0  0  0  0  0  4           0  0  0
   -3.4309    0.0145    5.7337 C   0  0  0  0  0  4           0  0  0
   -0.5420    0.0000    1.3967 C   0  0  0  0  0  4           0  0  0
   -1.1454    0.0198    6.4959 C   0  0  0  0  0  4           0  0  0
   -1.2932   -1.2047    3.3692 C   0  0  0  0  0  4           0  0  0
   -1.2687    1.2058    3.3772 C   0  0  0  0  0  4           0  0  0
   -3.8692    0.0495    7.0671 C   0  0  0  0  0  4           0  0  0
   -0.8000   -1.2052    2.0614 C   0  0  0  0  0  4           0  0  0
   -0.7753    1.2056    2.0695 C   0  0  0  0  0  4           0  0  0
   -1.5833    0.0567    7.8223 C   0  0  0  0  0  4           0  0  0
   -2.9439    0.0752    8.1069 C   0  0  0  0  0  4           0  0  0
   -4.4633   -0.0894    4.6819 C   0  0  0  0  0  4           0  0  0
    1.7359   -2.5214    0.0253 C   0  0  0  0  0  4           0  0  0
   -0.0000    0.0000    0.0000 C   0  0  0  0  0  4           0  0  0
    1.7776    2.4166   -0.0687 C   0  0  0  0  0  4           0  0  0
    2.3297    3.5207    0.4589 C   0  0  0  0  0  4           0  0  0
    3.6255    3.6853    1.1910 C   0  0  0  0  0  4           0  0  0
    4.7673    4.0022    0.2378 C   0  0  0  0  0  4           0  0  0
  1  7  1  0     0  0
  2 22  2  0     0  0
  3 22  1  0     0  0
  4 23  1  0     0  0
  5  8  1  0     0  0
  5  9  1  0     0  0
  5 24  1  0     0  0
  6  7  1  0     0  0
  6  8  2  0     0  0
  7  9  2  0     0  0
  8 25  1  0     0  0
  9 23  1  0     0  0
 10 11  1  0     0  0
 10 12  1  0     0  0
 10 14  2  0     0  0
 11 15  2  0     0  0
 11 16  1  0     0  0
 12 17  2  0     0  0
 12 22  1  0     0  0
 13 18  2  0     0  0
 13 19  1  0     0  0
 13 24  1  0     0  0
 14 20  1  0     0  0
 15 18  1  0     0  0
 16 19  2  0     0  0
 17 21  1  0     0  0
 20 21  2  0     0  0
 25 26  2  0     0  0
 26 27  1  0     0  0
 27 28  1  0     0  0
M  END
> <standard_type>
pIC50

> <# Confs.>
25

> <canonical_smiles>
ClC(N=C1/C=C/CC)=C(CO)N1CC2=CC=C(C3=CC=CC=C3C(O)=O)C=C2

> <standard_relation>
=

> <Publication_ID>
nan

> <predicted_activity_value>
7.0

> <actual_activity_value>
7.096910013008056

> <Compound>
6

> <standard_units>
nM

> hash
11452218105267670370

$$$$
6_
XXILIB    08252103503D 0   0.00000     0.00000

 28 30  0     1  0            999 V2000
    4.9767   -1.2177   -0.9976 Cl  0  0  0  0  0  1           0  0  0
   -2.4316    3.2277    5.2594 O   0  0  0  0  0  2           0  0  0
   -0.3444    2.6490    5.9307 O   0  0  0  0  0  2           0  0  0
    1.5326   -3.0387   -1.0970 O   0  0  0  0  0  2           0  0  0
    1.4552   -0.0000   -0.0000 N   0  0  0  0  0  3           0  0  0
    3.5567    0.4624    0.5509 N   0  0  0  0  0  3           0  0  0
    3.5404   -0.5197   -0.4024 C   0  0  0  0  0  4           0  0  0
    2.2952    0.7810    0.7810 C   0  0  0  0  0  4           0  0  0
    2.2476   -0.8283   -0.7761 C   0  0  0  0  0  4           0  0  0
   -2.1248   -0.0336    5.3906 C   0  0  0  0  0  4           0  0  0
   -1.5855   -0.0233    4.0248 C   0  0  0  0  0  4           0  0  0
   -2.1210    1.0943    6.2411 C   0  0  0  0  0  4           0  0  0
   -0.5420    0.0000    1.3967 C   0  0  0  0  0  4           0  0  0
   -2.6550   -1.2317    5.9112 C   0  0  0  0  0  4           0  0  0
   -2.1086    0.8424    3.0527 C   0  0  0  0  0  4           0  0  0
   -0.5360   -0.8803    3.6616 C   0  0  0  0  0  4           0  0  0
   -2.6200    1.0168    7.5511 C   0  0  0  0  0  4           0  0  0
   -1.5945    0.8522    1.7530 C   0  0  0  0  0  4           0  0  0
   -0.0218   -0.8708    2.3619 C   0  0  0  0  0  4           0  0  0
   -3.1495   -1.3077    7.2159 C   0  0  0  0  0  4           0  0  0
   -3.1284   -0.1851    8.0358 C   0  0  0  0  0  4           0  0  0
   -1.6678    2.4172    5.7641 C   0  0  0  0  0  4           0  0  0
    1.7359   -1.8008   -1.7650 C   0  0  0  0  0  4           0  0  0
    0.0000    0.0000    0.0000 C   0  0  0  0  0  4           0  0  0
    1.7776    1.7574    1.6602 C   0  0  0  0  0  4           0  0  0
    2.3297    2.1650    2.8140 C   0  0  0  0  0  4           0  0  0
    3.6255    1.7637    3.4480 C   0  0  0  0  0  4           0  0  0
    4.7673    2.6618    2.9981 C   0  0  0  0  0  4           0  0  0
  1  7  1  0     0  0
  2 22  2  0     0  0
  3 22  1  0     0  0
  4 23  1  0     0  0
  5  8  1  0     0  0
  5  9  1  0     0  0
  5 24  1  0     0  0
  6  7  1  0     0  0
  6  8  2  0     0  0
  7  9  2  0     0  0
  8 25  1  0     0  0
  9 23  1  0     0  0
 10 11  1  0     0  0
 10 12  1  0     0  0
 10 14  2  0     0  0
 11 15  2  0     0  0
 11 16  1  0     0  0
 12 17  2  0     0  0
 12 22  1  0     0  0
 13 18  2  0     0  0
 13 19  1  0     0  0
 13 24  1  0     0  0
 14 20  1  0     0  0
 15 18  1  0     0  0
 16 19  2  0     0  0
 17 21  1  0     0  0
 20 21  2  0     0  0
 25 26  2  0     0  0
 26 27  1  0     0  0
 27 28  1  0     0  0
M  END
> <standard_type>
pIC50

> <# Confs.>
25

> <canonical_smiles>
ClC(N=C1/C=C/CC)=C(CO)N1CC2=CC=C(C3=CC=CC=C3C(O)=O)C=C2

> <standard_relation>
=

> <Publication_ID>
nan

> <predicted_activity_value>
7.0

> <actual_activity_value>
7.096910013008056

> <Compound>
6

> <standard_units>
nM

> hash
11452218105267670370

$$$$
6_
XXILIB    08252103503D 0   0.00000     0.00000

 28 30  0     1  0            999 V2000
    4.9767    1.5665   -0.1556 Cl  0  0  0  0  0  1           0  0  0
   -1.4270    3.0374    5.0856 O   0  0  0  0  0  2           0  0  0
    0.0936    2.4444    6.6597 O   0  0  0  0  0  2           0  0  0
    1.5326    2.9244   -1.3730 O   0  0  0  0  0  2           0  0  0
    1.4552    0.0000    0.0000 N   0  0  0  0  0  3           0  0  0
    3.5567   -0.7165   -0.0626 N   0  0  0  0  0  3           0  0  0
    3.5404    0.6520   -0.0830 C   0  0  0  0  0  4           0  0  0
    2.2952   -1.1045    0.0000 C   0  0  0  0  0  4           0  0  0
    2.2476    1.1344   -0.0369 C   0  0  0  0  0  4           0  0  0
   -2.0983    0.0453    5.4009 C   0  0  0  0  0  4           0  0  0
   -1.5660    0.0320    4.0324 C   0  0  0  0  0  4           0  0  0
   -1.8206    1.0654    6.3378 C   0  0  0  0  0  4           0  0  0
   -0.5420    0.0000    1.3967 C   0  0  0  0  0  4           0  0  0
   -2.9107   -1.0229    5.8328 C   0  0  0  0  0  4           0  0  0
   -0.1826    0.0134    3.8002 C   0  0  0  0  0  4           0  0  0
   -2.4293    0.0391    2.9268 C   0  0  0  0  0  4           0  0  0
   -2.3302    1.0083    7.6448 C   0  0  0  0  0  4           0  0  0
    0.3236    0.0000    2.4974 C   0  0  0  0  0  4           0  0  0
   -1.9234    0.0259    1.6239 C   0  0  0  0  0  4           0  0  0
   -3.4154   -1.0792    7.1345 C   0  0  0  0  0  4           0  0  0
   -3.1221   -0.0661    8.0403 C   0  0  0  0  0  4           0  0  0
   -1.0524    2.2697    5.9603 C   0  0  0  0  0  4           0  0  0
    1.7359    2.5214   -0.0253 C   0  0  0  0  0  4           0  0  0
    0.0000    0.0000    0.0000 C   0  0  0  0  0  4           0  0  0
    1.7776   -2.4166    0.0687 C   0  0  0  0  0  4           0  0  0
    2.3297   -3.5207   -0.4589 C   0  0  0  0  0  4           0  0  0
    3.6255   -3.6853   -1.1910 C   0  0  0  0  0  4           0  0  0
    3.4476   -3.4907   -2.6888 C   0  0  0  0  0  4           0  0  0
  1  7  1  0     0  0
  2 22  2  0     0  0
  3 22  1  0     0  0
  4 23  1  0     0  0
  5  8  1  0     0  0
  5  9  1  0     0  0
  5 24  1  0     0  0
  6  7  1  0     0  0
  6  8  2  0     0  0
  7  9  2  0     0  0
  8 25  1  0     0  0
  9 23  1  0     0  0
 10 11  1  0     0  0
 10 12  1  0     0  0
 10 14  2  0     0  0
 11 15  2  0     0  0
 11 16  1  0     0  0
 12 17  2  0     0  0
 12 22  1  0     0  0
 13 18  2  0     0  0
 13 19  1  0     0  0
 13 24  1  0     0  0
 14 20  1  0     0  0
 15 18  1  0     0  0
 16 19  2  0     0  0
 17 21  1  0     0  0
 20 21  2  0     0  0
 25 26  2  0     0  0
 26 27  1  0     0  0
 27 28  1  0     0  0
M  END
> <standard_type>
pIC50

> <# Confs.>
25

> <canonical_smiles>
ClC(N=C1/C=C/CC)=C(CO)N1CC2=CC=C(C3=CC=CC=C3C(O)=O)C=C2

> <standard_relation>
=

> <Publication_ID>
nan

> <predicted_activity_value>
7.0

> <actual_activity_value>
7.096910013008056

> <Compound>
6

> <standard_units>
nM

> hash
11452218105267670370

$$$$
6_
XXILIB    08252103503D 0   0.00000     0.00000

 28 30  0     1  0            999 V2000
    4.9767    1.5665   -0.1556 Cl  0  0  0  0  0  1           0  0  0
   -0.9390   -2.8101    5.3325 O   0  0  0  0  0  2           0  0  0
   -3.1552   -3.2750    5.4518 O   0  0  0  0  0  2           0  0  0
    1.5326    2.9244   -1.3730 O   0  0  0  0  0  2           0  0  0
    1.4552    0.0000    0.0000 N   0  0  0  0  0  3           0  0  0
    3.5567   -0.7165   -0.0626 N   0  0  0  0  0  3           0  0  0
    3.5404    0.6520   -0.0830 C   0  0  0  0  0  4           0  0  0
    2.2952   -1.1045    0.0000 C   0  0  0  0  0  4           0  0  0
    2.2476    1.1344   -0.0369 C   0  0  0  0  0  4           0  0  0
   -2.0983    0.0453    5.4009 C   0  0  0  0  0  4           0  0  0
   -1.5660    0.0320    4.0324 C   0  0  0  0  0  4           0  0  0
   -2.3965   -1.1240    6.1351 C   0  0  0  0  0  4           0  0  0
   -0.5420    0.0000    1.3967 C   0  0  0  0  0  4           0  0  0
   -2.3594    1.2824    6.0247 C   0  0  0  0  0  4           0  0  0
   -0.1826    0.0134    3.8002 C   0  0  0  0  0  4           0  0  0
   -2.4293    0.0391    2.9268 C   0  0  0  0  0  4           0  0  0
   -2.9363   -1.0502    7.4292 C   0  0  0  0  0  4           0  0  0
    0.3236    0.0000    2.4974 C   0  0  0  0  0  4           0  0  0
   -1.9234    0.0259    1.6239 C   0  0  0  0  0  4           0  0  0
   -2.8985    1.3541    7.3119 C   0  0  0  0  0  4           0  0  0
   -3.1899    0.1886    8.0115 C   0  0  0  0  0  4           0  0  0
   -2.0801   -2.4670    5.6068 C   0  0  0  0  0  4           0  0  0
    1.7359    2.5214   -0.0253 C   0  0  0  0  0  4           0  0  0
    0.0000    0.0000    0.0000 C   0  0  0  0  0  4           0  0  0
    1.7776   -2.4166    0.0687 C   0  0  0  0  0  4           0  0  0
    2.3297   -3.5207   -0.4589 C   0  0  0  0  0  4           0  0  0
    3.6255   -3.6853   -1.1910 C   0  0  0  0  0  4           0  0  0
    4.7673   -4.0022   -0.2378 C   0  0  0  0  0  4           0  0  0
  1  7  1  0     0  0
  2 22  2  0     0  0
  3 22  1  0     0  0
  4 23  1  0     0  0
  5  8  1  0     0  0
  5  9  1  0     0  0
  5 24  1  0     0  0
  6  7  1  0     0  0
  6  8  2  0     0  0
  7  9  2  0     0  0
  8 25  1  0     0  0
  9 23  1  0     0  0
 10 11  1  0     0  0
 10 12  1  0     0  0
 10 14  2  0     0  0
 11 15  2  0     0  0
 11 16  1  0     0  0
 12 17  2  0     0  0
 12 22  1  0     0  0
 13 18  2  0     0  0
 13 19  1  0     0  0
 13 24  1  0     0  0
 14 20  1  0     0  0
 15 18  1  0     0  0
 16 19  2  0     0  0
 17 21  1  0     0  0
 20 21  2  0     0  0
 25 26  2  0     0  0
 26 27  1  0     0  0
 27 28  1  0     0  0
M  END
> <standard_type>
pIC50

> <# Confs.>
25

> <canonical_smiles>
ClC(N=C1/C=C/CC)=C(CO)N1CC2=CC=C(C3=CC=CC=C3C(O)=O)C=C2

> <standard_relation>
=

> <Publication_ID>
nan

> <predicted_activity_value>
7.0

> <actual_activity_value>
7.096910013008056

> <Compound>
6

> <standard_units>
nM

> hash
11452218105267670370

$$$$
6_
XXILIB    08252103503D 0   0.00000     0.00000

 28 30  0     1  0            999 V2000
    4.9767    1.5665   -0.1556 Cl  0  0  0  0  0  1           0  0  0
   -1.1767    2.9642    5.0355 O   0  0  0  0  0  2           0  0  0
   -3.3756    3.2888    5.4845 O   0  0  0  0  0  2           0  0  0
    1.5326    2.9244   -1.3730 O   0  0  0  0  0  2           0  0  0
    1.4552    0.0000    0.0000 N   0  0  0  0  0  3           0  0  0
    3.5567   -0.7165   -0.0626 N   0  0  0  0  0  3           0  0  0
    3.5404    0.6520   -0.0830 C   0  0  0  0  0  4           0  0  0
    2.2952   -1.1045    0.0000 C   0  0  0  0  0  4           0  0  0
    2.2476    1.1344   -0.0369 C   0  0  0  0  0  4           0  0  0
   -2.0983    0.0453    5.4009 C   0  0  0  0  0  4           0  0  0
   -1.5660    0.0320    4.0324 C   0  0  0  0  0  4           0  0  0
   -2.3668    1.2289    6.1237 C   0  0  0  0  0  4           0  0  0
   -0.5420    0.0000    1.3967 C   0  0  0  0  0  4           0  0  0
   -2.3355   -1.1792    6.0581 C   0  0  0  0  0  4           0  0  0
   -0.1826    0.0134    3.8002 C   0  0  0  0  0  4           0  0  0
   -2.4293    0.0391    2.9268 C   0  0  0  0  0  4           0  0  0
   -2.8437    1.1806    7.4434 C   0  0  0  0  0  4           0  0  0
    0.3236    0.0000    2.4974 C   0  0  0  0  0  4           0  0  0
   -1.9234    0.0259    1.6239 C   0  0  0  0  0  4           0  0  0
   -2.8082   -1.2255    7.3721 C   0  0  0  0  0  4           0  0  0
   -3.0584   -0.0464    8.0649 C   0  0  0  0  0  4           0  0  0
   -2.2343    2.5607    5.4977 C   0  0  0  0  0  4           0  0  0
    1.7359    2.5214   -0.0253 C   0  0  0  0  0  4           0  0  0
    0.0000    0.0000    0.0000 C   0  0  0  0  0  4           0  0  0
    1.7776   -2.4166    0.0687 C   0  0  0  0  0  4           0  0  0
    2.3297   -3.5207   -0.4589 C   0  0  0  0  0  4           0  0  0
    3.6255   -3.6853   -1.1910 C   0  0  0  0  0  4           0  0  0
    4.7673   -4.0022   -0.2378 C   0  0  0  0  0  4           0  0  0
  1  7  1  0     0  0
  2 22  2  0     0  0
  3 22  1  0     0  0
  4 23  1  0     0  0
  5  8  1  0     0  0
  5  9  1  0     0  0
  5 24  1  0     0  0
  6  7  1  0     0  0
  6  8  2  0     0  0
  7  9  2  0     0  0
  8 25  1  0     0  0
  9 23  1  0     0  0
 10 11  1  0     0  0
 10 12  1  0     0  0
 10 14  2  0     0  0
 11 15  2  0     0  0
 11 16  1  0     0  0
 12 17  2  0     0  0
 12 22  1  0     0  0
 13 18  2  0     0  0
 13 19  1  0     0  0
 13 24  1  0     0  0
 14 20  1  0     0  0
 15 18  1  0     0  0
 16 19  2  0     0  0
 17 21  1  0     0  0
 20 21  2  0     0  0
 25 26  2  0     0  0
 26 27  1  0     0  0
 27 28  1  0     0  0
M  END
> <standard_type>
pIC50

> <# Confs.>
25

> <canonical_smiles>
ClC(N=C1/C=C/CC)=C(CO)N1CC2=CC=C(C3=CC=CC=C3C(O)=O)C=C2

> <standard_relation>
=

> <Publication_ID>
nan

> <predicted_activity_value>
7.0

> <actual_activity_value>
7.096910013008056

> <Compound>
6

> <standard_units>
nM

> hash
11452218105267670370

$$$$
6_
XXILIB    08252103503D 0   0.00000     0.00000

 28 30  0     1  0            999 V2000
    4.9767   -1.2177   -0.9976 Cl  0  0  0  0  0  1           0  0  0
   -5.0983    0.0139    4.0109 O   0  0  0  0  0  2           0  0  0
   -4.4712   -2.1150    4.4765 O   0  0  0  0  0  2           0  0  0
    1.5326   -3.0387   -1.0970 O   0  0  0  0  0  2           0  0  0
    1.4552   -0.0000   -0.0000 N   0  0  0  0  0  3           0  0  0
    3.5567    0.4624    0.5509 N   0  0  0  0  0  3           0  0  0
    3.5404   -0.5197   -0.4024 C   0  0  0  0  0  4           0  0  0
    2.2952    0.7810    0.7810 C   0  0  0  0  0  4           0  0  0
    2.2476   -0.8283   -0.7761 C   0  0  0  0  0  4           0  0  0
   -2.1248   -0.0336    5.3906 C   0  0  0  0  0  4           0  0  0
   -1.5855   -0.0233    4.0248 C   0  0  0  0  0  4           0  0  0
   -3.4710   -0.3321    5.6973 C   0  0  0  0  0  4           0  0  0
   -0.5420    0.0000    1.3967 C   0  0  0  0  0  4           0  0  0
   -1.2764    0.2968    6.4670 C   0  0  0  0  0  4           0  0  0
   -2.1086    0.8424    3.0527 C   0  0  0  0  0  4           0  0  0
   -0.5360   -0.8803    3.6616 C   0  0  0  0  0  4           0  0  0
   -3.9395   -0.2933    7.0203 C   0  0  0  0  0  4           0  0  0
   -1.5945    0.8522    1.7530 C   0  0  0  0  0  4           0  0  0
   -0.0218   -0.8708    2.3619 C   0  0  0  0  0  4           0  0  0
   -1.7447    0.3369    7.7829 C   0  0  0  0  0  4           0  0  0
   -3.0759    0.0456    8.0583 C   0  0  0  0  0  4           0  0  0
   -4.4191   -0.7738    4.6537 C   0  0  0  0  0  4           0  0  0
    1.7359   -1.8008   -1.7650 C   0  0  0  0  0  4           0  0  0
    0.0000    0.0000    0.0000 C   0  0  0  0  0  4           0  0  0
    1.7776    1.7574    1.6602 C   0  0  0  0  0  4           0  0  0
    2.3297    2.1650    2.8140 C   0  0  0  0  0  4           0  0  0
    3.6255    1.7637    3.4480 C   0  0  0  0  0  4           0  0  0
    3.4476    0.5671    4.3696 C   0  0  0  0  0  4           0  0  0
  1  7  1  0     0  0
  2 22  2  0     0  0
  3 22  1  0     0  0
  4 23  1  0     0  0
  5  8  1  0     0  0
  5  9  1  0     0  0
  5 24  1  0     0  0
  6  7  1  0     0  0
  6  8  2  0     0  0
  7  9  2  0     0  0
  8 25  1  0     0  0
  9 23  1  0     0  0
 10 11  1  0     0  0
 10 12  1  0     0  0
 10 14  2  0     0  0
 11 15  2  0     0  0
 11 16  1  0     0  0
 12 17  2  0     0  0
 12 22  1  0     0  0
 13 18  2  0     0  0
 13 19  1  0     0  0
 13 24  1  0     0  0
 14 20  1  0     0  0
 15 18  1  0     0  0
 16 19  2  0     0  0
 17 21  1  0     0  0
 20 21  2  0     0  0
 25 26  2  0     0  0
 26 27  1  0     0  0
 27 28  1  0     0  0
M  END
> <standard_type>
pIC50

> <# Confs.>
25

> <canonical_smiles>
ClC(N=C1/C=C/CC)=C(CO)N1CC2=CC=C(C3=CC=CC=C3C(O)=O)C=C2

> <standard_relation>
=

> <Publication_ID>
nan

> <predicted_activity_value>
7.0

> <actual_activity_value>
7.096910013008056

> <Compound>
6

> <standard_units>
nM

> hash
11452218105267670370

$$$$
6_
XXILIB    08252103503D 0   0.00000     0.00000

 28 30  0     1  0            999 V2000
    4.9767   -1.5665    0.1556 Cl  0  0  0  0  0  1           0  0  0
   -2.0073    3.3018    5.2105 O   0  0  0  0  0  2           0  0  0
   -4.0668    2.5488    4.6334 O   0  0  0  0  0  2           0  0  0
    0.6515   -2.5957    0.9410 O   0  0  0  0  0  2           0  0  0
    1.4552   -0.0000   -0.0000 N   0  0  0  0  0  3           0  0  0
    3.5567    0.7165    0.0626 N   0  0  0  0  0  3           0  0  0
    3.5404   -0.6520    0.0830 C   0  0  0  0  0  4           0  0  0
    2.2952    1.1045    0.0000 C   0  0  0  0  0  4           0  0  0
    2.2476   -1.1344    0.0369 C   0  0  0  0  0  4           0  0  0
   -2.1276    0.0306    5.3896 C   0  0  0  0  0  4           0  0  0
   -1.5868    0.0219    4.0243 C   0  0  0  0  0  4           0  0  0
   -2.6856    1.1746    6.0021 C   0  0  0  0  0  4           0  0  0
   -0.5420    0.0000    1.3967 C   0  0  0  0  0  4           0  0  0
   -2.0717   -1.1498    6.1584 C   0  0  0  0  0  4           0  0  0
   -0.5204    0.8613    3.6691 C   0  0  0  0  0  4           0  0  0
   -2.1258   -0.8250    3.0446 C   0  0  0  0  0  4           0  0  0
   -3.1570    1.1327    7.3240 C   0  0  0  0  0  4           0  0  0
   -0.0055    0.8522    2.3697 C   0  0  0  0  0  4           0  0  0
   -1.6113   -0.8342    1.7450 C   0  0  0  0  0  4           0  0  0
   -2.5394   -1.1893    7.4745 C   0  0  0  0  0  4           0  0  0
   -3.0781   -0.0479    8.0574 C   0  0  0  0  0  4           0  0  0
   -2.8695    2.4360    5.2551 C   0  0  0  0  0  4           0  0  0
    1.7359   -2.5214    0.0253 C   0  0  0  0  0  4           0  0  0
    0.0000    0.0000    0.0000 C   0  0  0  0  0  4           0  0  0
    1.7776    2.4166   -0.0687 C   0  0  0  0  0  4           0  0  0
    2.3297    3.5207    0.4589 C   0  0  0  0  0  4           0  0  0
    3.6255    3.6853    1.1910 C   0  0  0  0  0  4           0  0  0
    3.4476    3.4907    2.6888 C   0  0  0  0  0  4           0  0  0
  1  7  1  0     0  0
  2 22  2  0     0  0
  3 22  1  0     0  0
  4 23  1  0     0  0
  5  8  1  0     0  0
  5  9  1  0     0  0
  5 24  1  0     0  0
  6  7  1  0     0  0
  6  8  2  0     0  0
  7  9  2  0     0  0
  8 25  1  0     0  0
  9 23  1  0     0  0
 10 11  1  0     0  0
 10 12  1  0     0  0
 10 14  2  0     0  0
 11 15  2  0     0  0
 11 16  1  0     0  0
 12 17  2  0     0  0
 12 22  1  0     0  0
 13 18  2  0     0  0
 13 19  1  0     0  0
 13 24  1  0     0  0
 14 20  1  0     0  0
 15 18  1  0     0  0
 16 19  2  0     0  0
 17 21  1  0     0  0
 20 21  2  0     0  0
 25 26  2  0     0  0
 26 27  1  0     0  0
 27 28  1  0     0  0
M  END
> <standard_type>
pIC50

> <# Confs.>
25

> <canonical_smiles>
ClC(N=C1/C=C/CC)=C(CO)N1CC2=CC=C(C3=CC=CC=C3C(O)=O)C=C2

> <standard_relation>
=

> <Publication_ID>
nan

> <predicted_activity_value>
7.0

> <actual_activity_value>
7.096910013008056

> <Compound>
6

> <standard_units>
nM

> hash
11452218105267670370

$$$$
6_
XXILIB    08252103503D 0   0.00000     0.00000

 28 30  0     1  0            999 V2000
    4.9767   -1.5665    0.1556 Cl  0  0  0  0  0  1           0  0  0
   -2.0073    3.3018    5.2105 O   0  0  0  0  0  2           0  0  0
   -4.0668    2.5488    4.6334 O   0  0  0  0  0  2           0  0  0
    0.6515   -2.5957    0.9410 O   0  0  0  0  0  2           0  0  0
    1.4552   -0.0000   -0.0000 N   0  0  0  0  0  3           0  0  0
    3.5567    0.7165    0.0626 N   0  0  0  0  0  3           0  0  0
    3.5404   -0.6520    0.0830 C   0  0  0  0  0  4           0  0  0
    2.2952    1.1045    0.0000 C   0  0  0  0  0  4           0  0  0
    2.2476   -1.1344    0.0369 C   0  0  0  0  0  4           0  0  0
   -2.1276    0.0306    5.3896 C   0  0  0  0  0  4           0  0  0
   -1.5868    0.0219    4.0243 C   0  0  0  0  0  4           0  0  0
   -2.6856    1.1746    6.0021 C   0  0  0  0  0  4           0  0  0
   -0.5420    0.0000    1.3967 C   0  0  0  0  0  4           0  0  0
   -2.0717   -1.1498    6.1584 C   0  0  0  0  0  4           0  0  0
   -0.5204    0.8613    3.6691 C   0  0  0  0  0  4           0  0  0
   -2.1258   -0.8250    3.0446 C   0  0  0  0  0  4           0  0  0
   -3.1570    1.1327    7.3240 C   0  0  0  0  0  4           0  0  0
   -0.0055    0.8522    2.3697 C   0  0  0  0  0  4           0  0  0
   -1.6113   -0.8342    1.7450 C   0  0  0  0  0  4           0  0  0
   -2.5394   -1.1893    7.4745 C   0  0  0  0  0  4           0  0  0
   -3.0781   -0.0479    8.0574 C   0  0  0  0  0  4           0  0  0
   -2.8695    2.4360    5.2551 C   0  0  0  0  0  4           0  0  0
    1.7359   -2.5214    0.0253 C   0  0  0  0  0  4           0  0  0
    0.0000    0.0000    0.0000 C   0  0  0  0  0  4           0  0  0
    1.7776    2.4166   -0.0687 C   0  0  0  0  0  4           0  0  0
    2.3297    3.5207    0.4589 C   0  0  0  0  0  4           0  0  0
    3.6255    3.6853    1.1910 C   0  0  0  0  0  4           0  0  0
    4.7673    4.0022    0.2378 C   0  0  0  0  0  4           0  0  0
  1  7  1  0     0  0
  2 22  2  0     0  0
  3 22  1  0     0  0
  4 23  1  0     0  0
  5  8  1  0     0  0
  5  9  1  0     0  0
  5 24  1  0     0  0
  6  7  1  0     0  0
  6  8  2  0     0  0
  7  9  2  0     0  0
  8 25  1  0     0  0
  9 23  1  0     0  0
 10 11  1  0     0  0
 10 12  1  0     0  0
 10 14  2  0     0  0
 11 15  2  0     0  0
 11 16  1  0     0  0
 12 17  2  0     0  0
 12 22  1  0     0  0
 13 18  2  0     0  0
 13 19  1  0     0  0
 13 24  1  0     0  0
 14 20  1  0     0  0
 15 18  1  0     0  0
 16 19  2  0     0  0
 17 21  1  0     0  0
 20 21  2  0     0  0
 25 26  2  0     0  0
 26 27  1  0     0  0
 27 28  1  0     0  0
M  END
> <standard_type>
pIC50

> <# Confs.>
25

> <canonical_smiles>
ClC(N=C1/C=C/CC)=C(CO)N1CC2=CC=C(C3=CC=CC=C3C(O)=O)C=C2

> <standard_relation>
=

> <Publication_ID>
nan

> <predicted_activity_value>
7.0

> <actual_activity_value>
7.096910013008056

> <Compound>
6

> <standard_units>
nM

> hash
11452218105267670370

$$$$
6_
XXILIB    08252103503D 0   0.00000     0.00000

 28 30  0     1  0            999 V2000
    4.9767   -1.5665    0.1556 Cl  0  0  0  0  0  1           0  0  0
    0.1472   -2.3445    6.0466 O   0  0  0  0  0  2           0  0  0
    0.9792   -0.3067    6.5917 O   0  0  0  0  0  2           0  0  0
    1.5326   -2.9244    1.3730 O   0  0  0  0  0  2           0  0  0
    1.4552   -0.0000   -0.0000 N   0  0  0  0  0  3           0  0  0
    3.5567    0.7165    0.0626 N   0  0  0  0  0  3           0  0  0
    3.5404   -0.6520    0.0830 C   0  0  0  0  0  4           0  0  0
    2.2952    1.1045    0.0000 C   0  0  0  0  0  4           0  0  0
    2.2476   -1.1344    0.0369 C   0  0  0  0  0  4           0  0  0
   -2.0541    0.0021    5.4181 C   0  0  0  0  0  4           0  0  0
   -1.5352    0.0010    4.0443 C   0  0  0  0  0  4           0  0  0
   -1.3828   -0.5957    6.5077 C   0  0  0  0  0  4           0  0  0
   -0.5420    0.0000    1.3967 C   0  0  0  0  0  4           0  0  0
   -3.3019    0.6032    5.6810 C   0  0  0  0  0  4           0  0  0
   -1.2932   -1.2047    3.3692 C   0  0  0  0  0  4           0  0  0
   -1.2687    1.2058    3.3772 C   0  0  0  0  0  4           0  0  0
   -1.9435   -0.5935    7.7949 C   0  0  0  0  0  4           0  0  0
   -0.8000   -1.2052    2.0614 C   0  0  0  0  0  4           0  0  0
   -0.7753    1.2056    2.0695 C   0  0  0  0  0  4           0  0  0
   -3.8596    0.6028    6.9622 C   0  0  0  0  0  4           0  0  0
   -3.1822    0.0016    8.0170 C   0  0  0  0  0  4           0  0  0
   -0.0322   -1.1754    6.3563 C   0  0  0  0  0  4           0  0  0
    1.7359   -2.5214    0.0253 C   0  0  0  0  0  4           0  0  0
   -0.0000    0.0000    0.0000 C   0  0  0  0  0  4           0  0  0
    1.7776    2.4166   -0.0687 C   0  0  0  0  0  4           0  0  0
    2.3297    3.5207    0.4589 C   0  0  0  0  0  4           0  0  0
    3.6255    3.6853    1.1910 C   0  0  0  0  0  4           0  0  0
    3.4476    3.4907    2.6888 C   0  0  0  0  0  4           0  0  0
  1  7  1  0     0  0
  2 22  2  0     0  0
  3 22  1  0     0  0
  4 23  1  0     0  0
  5  8  1  0     0  0
  5  9  1  0     0  0
  5 24  1  0     0  0
  6  7  1  0     0  0
  6  8  2  0     0  0
  7  9  2  0     0  0
  8 25  1  0     0  0
  9 23  1  0     0  0
 10 11  1  0     0  0
 10 12  1  0     0  0
 10 14  2  0     0  0
 11 15  2  0     0  0
 11 16  1  0     0  0
 12 17  2  0     0  0
 12 22  1  0     0  0
 13 18  2  0     0  0
 13 19  1  0     0  0
 13 24  1  0     0  0
 14 20  1  0     0  0
 15 18  1  0     0  0
 16 19  2  0     0  0
 17 21  1  0     0  0
 20 21  2  0     0  0
 25 26  2  0     0  0
 26 27  1  0     0  0
 27 28  1  0     0  0
M  END
> <standard_type>
pIC50

> <# Confs.>
25

> <canonical_smiles>
ClC(N=C1/C=C/CC)=C(CO)N1CC2=CC=C(C3=CC=CC=C3C(O)=O)C=C2

> <standard_relation>
=

> <Publication_ID>
nan

> <predicted_activity_value>
7.0

> <actual_activity_value>
7.096910013008056

> <Compound>
6

> <standard_units>
nM

> hash
11452218105267670370

$$$$
6_
XXILIB    08252103503D 0   0.00000     0.00000

 28 30  0     1  0            999 V2000
    4.9767    1.5665   -0.1556 Cl  0  0  0  0  0  1           0  0  0
   -1.4270    3.0374    5.0856 O   0  0  0  0  0  2           0  0  0
    0.0936    2.4444    6.6597 O   0  0  0  0  0  2           0  0  0
    1.5326    2.9244   -1.3730 O   0  0  0  0  0  2           0  0  0
    1.4552    0.0000    0.0000 N   0  0  0  0  0  3           0  0  0
    3.5567   -0.7165   -0.0626 N   0  0  0  0  0  3           0  0  0
    3.5404    0.6520   -0.0830 C   0  0  0  0  0  4           0  0  0
    2.2952   -1.1045    0.0000 C   0  0  0  0  0  4           0  0  0
    2.2476    1.1344   -0.0369 C   0  0  0  0  0  4           0  0  0
   -2.0983    0.0453    5.4009 C   0  0  0  0  0  4           0  0  0
   -1.5660    0.0320    4.0324 C   0  0  0  0  0  4           0  0  0
   -1.8206    1.0654    6.3378 C   0  0  0  0  0  4           0  0  0
   -0.5420    0.0000    1.3967 C   0  0  0  0  0  4           0  0  0
   -2.9107   -1.0229    5.8328 C   0  0  0  0  0  4           0  0  0
   -0.1826    0.0134    3.8002 C   0  0  0  0  0  4           0  0  0
   -2.4293    0.0391    2.9268 C   0  0  0  0  0  4           0  0  0
   -2.3302    1.0083    7.6448 C   0  0  0  0  0  4           0  0  0
    0.3236    0.0000    2.4974 C   0  0  0  0  0  4           0  0  0
   -1.9234    0.0259    1.6239 C   0  0  0  0  0  4           0  0  0
   -3.4154   -1.0792    7.1345 C   0  0  0  0  0  4           0  0  0
   -3.1221   -0.0661    8.0403 C   0  0  0  0  0  4           0  0  0
   -1.0524    2.2697    5.9603 C   0  0  0  0  0  4           0  0  0
    1.7359    2.5214   -0.0253 C   0  0  0  0  0  4           0  0  0
    0.0000    0.0000    0.0000 C   0  0  0  0  0  4           0  0  0
    1.7776   -2.4166    0.0687 C   0  0  0  0  0  4           0  0  0
    2.4885   -3.5554    0.0758 C   0  0  0  0  0  4           0  0  0
    3.9724   -3.7560    0.0716 C   0  0  0  0  0  4           0  0  0
    4.5300   -3.8183    1.4851 C   0  0  0  0  0  4           0  0  0
  1  7  1  0     0  0
  2 22  2  0     0  0
  3 22  1  0     0  0
  4 23  1  0     0  0
  5  8  1  0     0  0
  5  9  1  0     0  0
  5 24  1  0     0  0
  6  7  1  0     0  0
  6  8  2  0     0  0
  7  9  2  0     0  0
  8 25  1  0     0  0
  9 23  1  0     0  0
 10 11  1  0     0  0
 10 12  1  0     0  0
 10 14  2  0     0  0
 11 15  2  0     0  0
 11 16  1  0     0  0
 12 17  2  0     0  0
 12 22  1  0     0  0
 13 18  2  0     0  0
 13 19  1  0     0  0
 13 24  1  0     0  0
 14 20  1  0     0  0
 15 18  1  0     0  0
 16 19  2  0     0  0
 17 21  1  0     0  0
 20 21  2  0     0  0
 25 26  2  0     0  0
 26 27  1  0     0  0
 27 28  1  0     0  0
M  END
> <standard_type>
pIC50

> <# Confs.>
25

> <canonical_smiles>
ClC(N=C1/C=C/CC)=C(CO)N1CC2=CC=C(C3=CC=CC=C3C(O)=O)C=C2

> <standard_relation>
=

> <Publication_ID>
nan

> <predicted_activity_value>
7.0

> <actual_activity_value>
7.096910013008056

> <Compound>
6

> <standard_units>
nM

> hash
11452218105267670370

$$$$
6_
XXILIB    08252103503D 0   0.00000     0.00000

 28 30  0     1  0            999 V2000
    4.9767   -1.5665    0.1556 Cl  0  0  0  0  0  1           0  0  0
    0.1472   -2.3445    6.0466 O   0  0  0  0  0  2           0  0  0
    0.9792   -0.3067    6.5917 O   0  0  0  0  0  2           0  0  0
    1.5326   -2.9244    1.3730 O   0  0  0  0  0  2           0  0  0
    1.4552   -0.0000   -0.0000 N   0  0  0  0  0  3           0  0  0
    3.5567    0.7165    0.0626 N   0  0  0  0  0  3           0  0  0
    3.5404   -0.6520    0.0830 C   0  0  0  0  0  4           0  0  0
    2.2952    1.1045    0.0000 C   0  0  0  0  0  4           0  0  0
    2.2476   -1.1344    0.0369 C   0  0  0  0  0  4           0  0  0
   -2.0541    0.0021    5.4181 C   0  0  0  0  0  4           0  0  0
   -1.5352    0.0010    4.0443 C   0  0  0  0  0  4           0  0  0
   -1.3828   -0.5957    6.5077 C   0  0  0  0  0  4           0  0  0
   -0.5420    0.0000    1.3967 C   0  0  0  0  0  4           0  0  0
   -3.3019    0.6032    5.6810 C   0  0  0  0  0  4           0  0  0
   -1.2932   -1.2047    3.3692 C   0  0  0  0  0  4           0  0  0
   -1.2687    1.2058    3.3772 C   0  0  0  0  0  4           0  0  0
   -1.9435   -0.5935    7.7949 C   0  0  0  0  0  4           0  0  0
   -0.8000   -1.2052    2.0614 C   0  0  0  0  0  4           0  0  0
   -0.7753    1.2056    2.0695 C   0  0  0  0  0  4           0  0  0
   -3.8596    0.6028    6.9622 C   0  0  0  0  0  4           0  0  0
   -3.1822    0.0016    8.0170 C   0  0  0  0  0  4           0  0  0
   -0.0322   -1.1754    6.3563 C   0  0  0  0  0  4           0  0  0
    1.7359   -2.5214    0.0253 C   0  0  0  0  0  4           0  0  0
   -0.0000    0.0000    0.0000 C   0  0  0  0  0  4           0  0  0
    1.7776    2.4166   -0.0687 C   0  0  0  0  0  4           0  0  0
    2.3297    3.5207    0.4589 C   0  0  0  0  0  4           0  0  0
    3.6255    3.6853    1.1910 C   0  0  0  0  0  4           0  0  0
    4.7673    4.0022    0.2378 C   0  0  0  0  0  4           0  0  0
  1  7  1  0     0  0
  2 22  2  0     0  0
  3 22  1  0     0  0
  4 23  1  0     0  0
  5  8  1  0     0  0
  5  9  1  0     0  0
  5 24  1  0     0  0
  6  7  1  0     0  0
  6  8  2  0     0  0
  7  9  2  0     0  0
  8 25  1  0     0  0
  9 23  1  0     0  0
 10 11  1  0     0  0
 10 12  1  0     0  0
 10 14  2  0     0  0
 11 15  2  0     0  0
 11 16  1  0     0  0
 12 17  2  0     0  0
 12 22  1  0     0  0
 13 18  2  0     0  0
 13 19  1  0     0  0
 13 24  1  0     0  0
 14 20  1  0     0  0
 15 18  1  0     0  0
 16 19  2  0     0  0
 17 21  1  0     0  0
 20 21  2  0     0  0
 25 26  2  0     0  0
 26 27  1  0     0  0
 27 28  1  0     0  0
M  END
> <standard_type>
pIC50

> <# Confs.>
25

> <canonical_smiles>
ClC(N=C1/C=C/CC)=C(CO)N1CC2=CC=C(C3=CC=CC=C3C(O)=O)C=C2

> <standard_relation>
=

> <Publication_ID>
nan

> <predicted_activity_value>
7.0

> <actual_activity_value>
7.096910013008056

> <Compound>
6

> <standard_units>
nM

> hash
11452218105267670370

$$$$
6_
XXILIB    08252103503D 0   0.00000     0.00000

 28 30  0     1  0            999 V2000
    4.9767    1.5665   -0.1556 Cl  0  0  0  0  0  1           0  0  0
   -3.1113   -2.7923    4.4321 O   0  0  0  0  0  2           0  0  0
   -5.0896   -1.7033    4.6378 O   0  0  0  0  0  2           0  0  0
    1.5326    2.9244   -1.3730 O   0  0  0  0  0  2           0  0  0
    1.4552    0.0000    0.0000 N   0  0  0  0  0  3           0  0  0
    3.5567   -0.7165   -0.0626 N   0  0  0  0  0  3           0  0  0
    3.5404    0.6520   -0.0830 C   0  0  0  0  0  4           0  0  0
    2.2952   -1.1045    0.0000 C   0  0  0  0  0  4           0  0  0
    2.2476    1.1344   -0.0369 C   0  0  0  0  0  4           0  0  0
   -2.1248   -0.0336    5.3906 C   0  0  0  0  0  4           0  0  0
   -1.5855   -0.0233    4.0248 C   0  0  0  0  0  4           0  0  0
   -3.1913   -0.8626    5.8037 C   0  0  0  0  0  4           0  0  0
   -0.5420    0.0000    1.3967 C   0  0  0  0  0  4           0  0  0
   -1.5813    0.8441    6.3508 C   0  0  0  0  0  4           0  0  0
   -2.1086    0.8424    3.0527 C   0  0  0  0  0  4           0  0  0
   -0.5360   -0.8803    3.6616 C   0  0  0  0  0  4           0  0  0
   -3.6887   -0.8052    7.1155 C   0  0  0  0  0  4           0  0  0
   -1.5945    0.8522    1.7530 C   0  0  0  0  0  4           0  0  0
   -0.0218   -0.8708    2.3619 C   0  0  0  0  0  4           0  0  0
   -2.0787    0.9014    7.6552 C   0  0  0  0  0  4           0  0  0
   -3.1339    0.0799    8.0356 C   0  0  0  0  0  4           0  0  0
   -3.7729   -1.8771    4.9006 C   0  0  0  0  0  4           0  0  0
    1.7359    2.5214   -0.0253 C   0  0  0  0  0  4           0  0  0
    0.0000    0.0000    0.0000 C   0  0  0  0  0  4           0  0  0
    1.7776   -2.4166    0.0687 C   0  0  0  0  0  4           0  0  0
    2.3786   -3.4835    0.6190 C   0  0  0  0  0  4           0  0  0
    3.6881   -3.5774    1.3392 C   0  0  0  0  0  4           0  0  0
    4.8306   -3.8755    0.3808 C   0  0  0  0  0  4           0  0  0
  1  7  1  0     0  0
  2 22  2  0     0  0
  3 22  1  0     0  0
  4 23  1  0     0  0
  5  8  1  0     0  0
  5  9  1  0     0  0
  5 24  1  0     0  0
  6  7  1  0     0  0
  6  8  2  0     0  0
  7  9  2  0     0  0
  8 25  1  0     0  0
  9 23  1  0     0  0
 10 11  1  0     0  0
 10 12  1  0     0  0
 10 14  2  0     0  0
 11 15  2  0     0  0
 11 16  1  0     0  0
 12 17  2  0     0  0
 12 22  1  0     0  0
 13 18  2  0     0  0
 13 19  1  0     0  0
 13 24  1  0     0  0
 14 20  1  0     0  0
 15 18  1  0     0  0
 16 19  2  0     0  0
 17 21  1  0     0  0
 20 21  2  0     0  0
 25 26  2  0     0  0
 26 27  1  0     0  0
 27 28  1  0     0  0
M  END
> <standard_type>
pIC50

> <# Confs.>
25

> <canonical_smiles>
ClC(N=C1/C=C/CC)=C(CO)N1CC2=CC=C(C3=CC=CC=C3C(O)=O)C=C2

> <standard_relation>
=

> <Publication_ID>
nan

> <predicted_activity_value>
7.0

> <actual_activity_value>
7.096910013008056

> <Compound>
6

> <standard_units>
nM

> hash
11452218105267670370

$$$$
6_
XXILIB    08252103503D 0   0.00000     0.00000

 28 30  0     1  0            999 V2000
    4.9767   -1.2177   -0.9976 Cl  0  0  0  0  0  1           0  0  0
   -5.0983    0.0139    4.0109 O   0  0  0  0  0  2           0  0  0
   -4.4712   -2.1150    4.4765 O   0  0  0  0  0  2           0  0  0
    1.5326   -3.0387   -1.0970 O   0  0  0  0  0  2           0  0  0
    1.4552   -0.0000   -0.0000 N   0  0  0  0  0  3           0  0  0
    3.5567    0.4624    0.5509 N   0  0  0  0  0  3           0  0  0
    3.5404   -0.5197   -0.4024 C   0  0  0  0  0  4           0  0  0
    2.2952    0.7810    0.7810 C   0  0  0  0  0  4           0  0  0
    2.2476   -0.8283   -0.7761 C   0  0  0  0  0  4           0  0  0
   -2.1248   -0.0336    5.3906 C   0  0  0  0  0  4           0  0  0
   -1.5855   -0.0233    4.0248 C   0  0  0  0  0  4           0  0  0
   -3.4710   -0.3321    5.6973 C   0  0  0  0  0  4           0  0  0
   -0.5420    0.0000    1.3967 C   0  0  0  0  0  4           0  0  0
   -1.2764    0.2968    6.4670 C   0  0  0  0  0  4           0  0  0
   -2.1086    0.8424    3.0527 C   0  0  0  0  0  4           0  0  0
   -0.5360   -0.8803    3.6616 C   0  0  0  0  0  4           0  0  0
   -3.9395   -0.2933    7.0203 C   0  0  0  0  0  4           0  0  0
   -1.5945    0.8522    1.7530 C   0  0  0  0  0  4           0  0  0
   -0.0218   -0.8708    2.3619 C   0  0  0  0  0  4           0  0  0
   -1.7447    0.3369    7.7829 C   0  0  0  0  0  4           0  0  0
   -3.0759    0.0456    8.0583 C   0  0  0  0  0  4           0  0  0
   -4.4191   -0.7738    4.6537 C   0  0  0  0  0  4           0  0  0
    1.7359   -1.8008   -1.7650 C   0  0  0  0  0  4           0  0  0
    0.0000    0.0000    0.0000 C   0  0  0  0  0  4           0  0  0
    1.7776    1.7574    1.6602 C   0  0  0  0  0  4           0  0  0
    2.3297    2.1650    2.8140 C   0  0  0  0  0  4           0  0  0
    3.6255    1.7637    3.4480 C   0  0  0  0  0  4           0  0  0
    4.7673    2.6618    2.9981 C   0  0  0  0  0  4           0  0  0
  1  7  1  0     0  0
  2 22  2  0     0  0
  3 22  1  0     0  0
  4 23  1  0     0  0
  5  8  1  0     0  0
  5  9  1  0     0  0
  5 24  1  0     0  0
  6  7  1  0     0  0
  6  8  2  0     0  0
  7  9  2  0     0  0
  8 25  1  0     0  0
  9 23  1  0     0  0
 10 11  1  0     0  0
 10 12  1  0     0  0
 10 14  2  0     0  0
 11 15  2  0     0  0
 11 16  1  0     0  0
 12 17  2  0     0  0
 12 22  1  0     0  0
 13 18  2  0     0  0
 13 19  1  0     0  0
 13 24  1  0     0  0
 14 20  1  0     0  0
 15 18  1  0     0  0
 16 19  2  0     0  0
 17 21  1  0     0  0
 20 21  2  0     0  0
 25 26  2  0     0  0
 26 27  1  0     0  0
 27 28  1  0     0  0
M  END
> <standard_type>
pIC50

> <# Confs.>
25

> <canonical_smiles>
ClC(N=C1/C=C/CC)=C(CO)N1CC2=CC=C(C3=CC=CC=C3C(O)=O)C=C2

> <standard_relation>
=

> <Publication_ID>
nan

> <predicted_activity_value>
7.0

> <actual_activity_value>
7.096910013008056

> <Compound>
6

> <standard_units>
nM

> hash
11452218105267670370

$$$$
6_
XXILIB    08252103503D 0   0.00000     0.00000

 28 30  0     1  0            999 V2000
    4.9767    1.5665   -0.1556 Cl  0  0  0  0  0  1           0  0  0
   -3.1113   -2.7923    4.4321 O   0  0  0  0  0  2           0  0  0
   -5.0896   -1.7033    4.6378 O   0  0  0  0  0  2           0  0  0
    1.5326    2.9244   -1.3730 O   0  0  0  0  0  2           0  0  0
    1.4552    0.0000    0.0000 N   0  0  0  0  0  3           0  0  0
    3.5567   -0.7165   -0.0626 N   0  0  0  0  0  3           0  0  0
    3.5404    0.6520   -0.0830 C   0  0  0  0  0  4           0  0  0
    2.2952   -1.1045    0.0000 C   0  0  0  0  0  4           0  0  0
    2.2476    1.1344   -0.0369 C   0  0  0  0  0  4           0  0  0
   -2.1248   -0.0336    5.3906 C   0  0  0  0  0  4           0  0  0
   -1.5855   -0.0233    4.0248 C   0  0  0  0  0  4           0  0  0
   -3.1913   -0.8626    5.8037 C   0  0  0  0  0  4           0  0  0
   -0.5420    0.0000    1.3967 C   0  0  0  0  0  4           0  0  0
   -1.5813    0.8441    6.3508 C   0  0  0  0  0  4           0  0  0
   -2.1086    0.8424    3.0527 C   0  0  0  0  0  4           0  0  0
   -0.5360   -0.8803    3.6616 C   0  0  0  0  0  4           0  0  0
   -3.6887   -0.8052    7.1155 C   0  0  0  0  0  4           0  0  0
   -1.5945    0.8522    1.7530 C   0  0  0  0  0  4           0  0  0
   -0.0218   -0.8708    2.3619 C   0  0  0  0  0  4           0  0  0
   -2.0787    0.9014    7.6552 C   0  0  0  0  0  4           0  0  0
   -3.1339    0.0799    8.0356 C   0  0  0  0  0  4           0  0  0
   -3.7729   -1.8771    4.9006 C   0  0  0  0  0  4           0  0  0
    1.7359    2.5214   -0.0253 C   0  0  0  0  0  4           0  0  0
    0.0000    0.0000    0.0000 C   0  0  0  0  0  4           0  0  0
    1.7776   -2.4166    0.0687 C   0  0  0  0  0  4           0  0  0
    2.3786   -3.4835    0.6190 C   0  0  0  0  0  4           0  0  0
    3.6881   -3.5774    1.3392 C   0  0  0  0  0  4           0  0  0
    3.5195   -3.3491    2.8333 C   0  0  0  0  0  4           0  0  0
  1  7  1  0     0  0
  2 22  2  0     0  0
  3 22  1  0     0  0
  4 23  1  0     0  0
  5  8  1  0     0  0
  5  9  1  0     0  0
  5 24  1  0     0  0
  6  7  1  0     0  0
  6  8  2  0     0  0
  7  9  2  0     0  0
  8 25  1  0     0  0
  9 23  1  0     0  0
 10 11  1  0     0  0
 10 12  1  0     0  0
 10 14  2  0     0  0
 11 15  2  0     0  0
 11 16  1  0     0  0
 12 17  2  0     0  0
 12 22  1  0     0  0
 13 18  2  0     0  0
 13 19  1  0     0  0
 13 24  1  0     0  0
 14 20  1  0     0  0
 15 18  1  0     0  0
 16 19  2  0     0  0
 17 21  1  0     0  0
 20 21  2  0     0  0
 25 26  2  0     0  0
 26 27  1  0     0  0
 27 28  1  0     0  0
M  END
> <standard_type>
pIC50

> <# Confs.>
25

> <canonical_smiles>
ClC(N=C1/C=C/CC)=C(CO)N1CC2=CC=C(C3=CC=CC=C3C(O)=O)C=C2

> <standard_relation>
=

> <Publication_ID>
nan

> <predicted_activity_value>
7.0

> <actual_activity_value>
7.096910013008056

> <Compound>
6

> <standard_units>
nM

> hash
11452218105267670370

$$$$
6_
XXILIB    08252103503D 0   0.00000     0.00000

 28 30  0     1  0            999 V2000
    4.9767   -1.5665    0.1556 Cl  0  0  0  0  0  1           0  0  0
    0.9168    0.3640    6.5589 O   0  0  0  0  0  2           0  0  0
    0.4241   -1.8246    6.2289 O   0  0  0  0  0  2           0  0  0
    0.6515   -2.5957    0.9410 O   0  0  0  0  0  2           0  0  0
    1.4552   -0.0000   -0.0000 N   0  0  0  0  0  3           0  0  0
    3.5567    0.7165    0.0626 N   0  0  0  0  0  3           0  0  0
    3.5404   -0.6520    0.0830 C   0  0  0  0  0  4           0  0  0
    2.2952    1.1045    0.0000 C   0  0  0  0  0  4           0  0  0
    2.2476   -1.1344    0.0369 C   0  0  0  0  0  4           0  0  0
   -2.1276    0.0306    5.3896 C   0  0  0  0  0  4           0  0  0
   -1.5868    0.0219    4.0243 C   0  0  0  0  0  4           0  0  0
   -1.3625   -0.2807    6.5354 C   0  0  0  0  0  4           0  0  0
   -0.5420    0.0000    1.3967 C   0  0  0  0  0  4           0  0  0
   -3.4895    0.3365    5.5873 C   0  0  0  0  0  4           0  0  0
   -0.5204    0.8613    3.6691 C   0  0  0  0  0  4           0  0  0
   -2.1258   -0.8250    3.0446 C   0  0  0  0  0  4           0  0  0
   -1.9420   -0.2894    7.8143 C   0  0  0  0  0  4           0  0  0
   -0.0055    0.8522    2.3697 C   0  0  0  0  0  4           0  0  0
   -1.6113   -0.8342    1.7450 C   0  0  0  0  0  4           0  0  0
   -4.0652    0.3254    6.8605 C   0  0  0  0  0  4           0  0  0
   -3.2925    0.0091    7.9721 C   0  0  0  0  0  4           0  0  0
    0.0910   -0.5306    6.4467 C   0  0  0  0  0  4           0  0  0
    1.7359   -2.5214    0.0253 C   0  0  0  0  0  4           0  0  0
    0.0000    0.0000    0.0000 C   0  0  0  0  0  4           0  0  0
    1.7776    2.4166   -0.0687 C   0  0  0  0  0  4           0  0  0
    2.3297    3.5207    0.4589 C   0  0  0  0  0  4           0  0  0
    3.6255    3.6853    1.1910 C   0  0  0  0  0  4           0  0  0
    3.4476    3.4907    2.6888 C   0  0  0  0  0  4           0  0  0
  1  7  1  0     0  0
  2 22  2  0     0  0
  3 22  1  0     0  0
  4 23  1  0     0  0
  5  8  1  0     0  0
  5  9  1  0     0  0
  5 24  1  0     0  0
  6  7  1  0     0  0
  6  8  2  0     0  0
  7  9  2  0     0  0
  8 25  1  0     0  0
  9 23  1  0     0  0
 10 11  1  0     0  0
 10 12  1  0     0  0
 10 14  2  0     0  0
 11 15  2  0     0  0
 11 16  1  0     0  0
 12 17  2  0     0  0
 12 22  1  0     0  0
 13 18  2  0     0  0
 13 19  1  0     0  0
 13 24  1  0     0  0
 14 20  1  0     0  0
 15 18  1  0     0  0
 16 19  2  0     0  0
 17 21  1  0     0  0
 20 21  2  0     0  0
 25 26  2  0     0  0
 26 27  1  0     0  0
 27 28  1  0     0  0
M  END
> <standard_type>
pIC50

> <# Confs.>
25

> <canonical_smiles>
ClC(N=C1/C=C/CC)=C(CO)N1CC2=CC=C(C3=CC=CC=C3C(O)=O)C=C2

> <standard_relation>
=

> <Publication_ID>
nan

> <predicted_activity_value>
7.0

> <actual_activity_value>
7.096910013008056

> <Compound>
6

> <standard_units>
nM

> hash
11452218105267670370

$$$$
8_
XXILIB    08252103503D 0   0.00000     0.00000

 29 31  0     1  0            999 V2000
    5.0074   -1.4914   -0.0122 Cl  0  0  0  0  0  1           0  0  0
   -4.6018   -1.0254    3.9373 O   0  0  0  0  0  2           0  0  0
    0.7380   -2.5888   -0.9589 O   0  0  0  0  0  2           0  0  0
   -5.2861    0.9787    4.7809 O   0  0  0  0  0  2           0  0  0
    1.4523   -0.0000   -0.0000 N   0  0  0  0  0  3           0  0  0
    3.5393    0.7630   -0.0025 N   0  0  0  0  0  3           0  0  0
    3.5500   -0.6068   -0.0019 C   0  0  0  0  0  4           0  0  0
    2.2690    1.1150    0.0000 C   0  0  0  0  0  4           0  0  0
    2.2653   -1.1171    0.0044 C   0  0  0  0  0  4           0  0  0
   -2.0446   -0.0040    5.4234 C   0  0  0  0  0  4           0  0  0
   -1.5306   -0.0017    4.0471 C   0  0  0  0  0  4           0  0  0
   -3.4195   -0.0176    5.7457 C   0  0  0  0  0  4           0  0  0
   -0.5425    0.0000    1.3966 C   0  0  0  0  0  4           0  0  0
   -1.1355    0.0384    6.4998 C   0  0  0  0  0  4           0  0  0
   -1.2915    1.2039    3.3707 C   0  0  0  0  0  4           0  0  0
   -1.2647   -1.2060    3.3790 C   0  0  0  0  0  4           0  0  0
   -3.8595    0.0384    7.0761 C   0  0  0  0  0  4           0  0  0
   -0.8009    1.2048    2.0617 C   0  0  0  0  0  4           0  0  0
   -0.7743   -1.2055    2.0702 C   0  0  0  0  0  4           0  0  0
   -1.5732    0.0806    7.8271 C   0  0  0  0  0  4           0  0  0
   -2.9337    0.0847    8.1141 C   0  0  0  0  0  4           0  0  0
   -4.4774   -0.1029    4.7248 C   0  0  0  0  0  4           0  0  0
    1.7788   -2.5157    0.0058 C   0  0  0  0  0  4           0  0  0
    0.1768   -3.8913   -1.0604 C   0  0  0  0  0  4           0  0  0
    0.0000    0.0000    0.0000 C   0  0  0  0  0  4           0  0  0
    1.7865    2.5211   -0.0017 C   0  0  0  0  0  4           0  0  0
    2.5423    3.3936   -0.9988 C   0  0  0  0  0  4           0  0  0
    2.4340    2.9263   -2.4506 C   0  0  0  0  0  4           0  0  0
    3.1988    3.8184   -3.4171 C   0  0  0  0  0  4           0  0  0
  1  7  1  0     0  0
  2 22  2  0     0  0
  3 23  1  0     0  0
  3 24  1  0     0  0
  4 22  1  0     0  0
  5  8  1  0     0  0
  5  9  1  0     0  0
  5 25  1  0     0  0
  6  7  1  0     0  0
  6  8  2  0     0  0
  7  9  2  0     0  0
  8 26  1  0     0  0
  9 23  1  0     0  0
 10 11  1  0     0  0
 10 12  1  0     0  0
 10 14  2  0     0  0
 11 15  2  0     0  0
 11 16  1  0     0  0
 12 17  2  0     0  0
 12 22  1  0     0  0
 13 18  2  0     0  0
 13 19  1  0     0  0
 13 25  1  0     0  0
 14 20  1  0     0  0
 15 18  1  0     0  0
 16 19  2  0     0  0
 17 21  1  0     0  0
 20 21  2  0     0  0
 26 27  1  0     0  0
 27 28  1  0     0  0
 28 29  1  0     0  0
M  END
> <standard_type>
pIC50

> <# Confs.>
25

> <canonical_smiles>
ClC(N=C1CCCC)=C(COC)N1CC2=CC=C(C3=CC=CC=C3C(O)=O)C=C2

> <standard_relation>
=

> <Publication_ID>
nan

> <predicted_activity_value>
6.920818753952375

> <actual_activity_value>
7.00436480540245

> <Compound>
8

> <standard_units>
nM

> hash
1825488953729453991

$$$$
8_
XXILIB    08252103503D 0   0.00000     0.00000

 29 31  0     1  0            999 V2000
    5.0074   -1.4914   -0.0122 Cl  0  0  0  0  0  1           0  0  0
   -4.6431    0.7138    3.8347 O   0  0  0  0  0  2           0  0  0
    0.7380   -2.5888   -0.9589 O   0  0  0  0  0  2           0  0  0
   -5.2363   -1.2057    4.9118 O   0  0  0  0  0  2           0  0  0
    1.4523   -0.0000   -0.0000 N   0  0  0  0  0  3           0  0  0
    3.5393    0.7630   -0.0025 N   0  0  0  0  0  3           0  0  0
    3.5500   -0.6068   -0.0019 C   0  0  0  0  0  4           0  0  0
    2.2690    1.1150    0.0000 C   0  0  0  0  0  4           0  0  0
    2.2653   -1.1171    0.0044 C   0  0  0  0  0  4           0  0  0
   -2.0446   -0.0040    5.4234 C   0  0  0  0  0  4           0  0  0
   -1.5306   -0.0017    4.0471 C   0  0  0  0  0  4           0  0  0
   -3.4195   -0.0176    5.7457 C   0  0  0  0  0  4           0  0  0
   -0.5425    0.0000    1.3966 C   0  0  0  0  0  4           0  0  0
   -1.1355    0.0384    6.4998 C   0  0  0  0  0  4           0  0  0
   -1.2915    1.2039    3.3707 C   0  0  0  0  0  4           0  0  0
   -1.2647   -1.2060    3.3790 C   0  0  0  0  0  4           0  0  0
   -3.8595    0.0384    7.0761 C   0  0  0  0  0  4           0  0  0
   -0.8009    1.2048    2.0617 C   0  0  0  0  0  4           0  0  0
   -0.7743   -1.2055    2.0702 C   0  0  0  0  0  4           0  0  0
   -1.5732    0.0806    7.8271 C   0  0  0  0  0  4           0  0  0
   -2.9337    0.0847    8.1141 C   0  0  0  0  0  4           0  0  0
   -4.4774   -0.1029    4.7248 C   0  0  0  0  0  4           0  0  0
    1.7788   -2.5157    0.0058 C   0  0  0  0  0  4           0  0  0
    0.1768   -3.8913   -1.0604 C   0  0  0  0  0  4           0  0  0
    0.0000    0.0000    0.0000 C   0  0  0  0  0  4           0  0  0
    1.7865    2.5211   -0.0017 C   0  0  0  0  0  4           0  0  0
    2.5423    3.3936   -0.9988 C   0  0  0  0  0  4           0  0  0
    2.4340    2.9263   -2.4506 C   0  0  0  0  0  4           0  0  0
    3.1988    3.8184   -3.4171 C   0  0  0  0  0  4           0  0  0
  1  7  1  0     0  0
  2 22  2  0     0  0
  3 23  1  0     0  0
  3 24  1  0     0  0
  4 22  1  0     0  0
  5  8  1  0     0  0
  5  9  1  0     0  0
  5 25  1  0     0  0
  6  7  1  0     0  0
  6  8  2  0     0  0
  7  9  2  0     0  0
  8 26  1  0     0  0
  9 23  1  0     0  0
 10 11  1  0     0  0
 10 12  1  0     0  0
 10 14  2  0     0  0
 11 15  2  0     0  0
 11 16  1  0     0  0
 12 17  2  0     0  0
 12 22  1  0     0  0
 13 18  2  0     0  0
 13 19  1  0     0  0
 13 25  1  0     0  0
 14 20  1  0     0  0
 15 18  1  0     0  0
 16 19  2  0     0  0
 17 21  1  0     0  0
 20 21  2  0     0  0
 26 27  1  0     0  0
 27 28  1  0     0  0
 28 29  1  0     0  0
M  END
> <standard_type>
pIC50

> <# Confs.>
25

> <canonical_smiles>
ClC(N=C1CCCC)=C(COC)N1CC2=CC=C(C3=CC=CC=C3C(O)=O)C=C2

> <standard_relation>
=

> <Publication_ID>
nan

> <predicted_activity_value>
6.920818753952375

> <actual_activity_value>
7.00436480540245

> <Compound>
8

> <standard_units>
nM

> hash
1825488953729453991

$$$$
8_
XXILIB    08252103503D 0   0.00000     0.00000

 29 31  0     1  0            999 V2000
    5.0074   -1.4914   -0.0122 Cl  0  0  0  0  0  1           0  0  0
   -4.7156    0.5693    3.8976 O   0  0  0  0  0  2           0  0  0
    0.7380   -2.5888   -0.9589 O   0  0  0  0  0  2           0  0  0
   -4.4169    2.4777    5.1081 O   0  0  0  0  0  2           0  0  0
    1.4523   -0.0000   -0.0000 N   0  0  0  0  0  3           0  0  0
    3.5393    0.7630   -0.0025 N   0  0  0  0  0  3           0  0  0
    3.5500   -0.6068   -0.0019 C   0  0  0  0  0  4           0  0  0
    2.2690    1.1150    0.0000 C   0  0  0  0  0  4           0  0  0
    2.2653   -1.1171    0.0044 C   0  0  0  0  0  4           0  0  0
   -2.0446   -0.0040    5.4234 C   0  0  0  0  0  4           0  0  0
   -1.5306   -0.0017    4.0471 C   0  0  0  0  0  4           0  0  0
   -3.2781    0.5717    5.7995 C   0  0  0  0  0  4           0  0  0
   -0.5425    0.0000    1.3966 C   0  0  0  0  0  4           0  0  0
   -1.2689   -0.5815    6.4490 C   0  0  0  0  0  4           0  0  0
   -1.2915    1.2039    3.3707 C   0  0  0  0  0  4           0  0  0
   -1.2647   -1.2060    3.3790 C   0  0  0  0  0  4           0  0  0
   -3.6975    0.5933    7.1375 C   0  0  0  0  0  4           0  0  0
   -0.8009    1.2048    2.0617 C   0  0  0  0  0  4           0  0  0
   -0.7743   -1.2055    2.0702 C   0  0  0  0  0  4           0  0  0
   -1.6926   -0.5725    7.7814 C   0  0  0  0  0  4           0  0  0
   -2.9036    0.0180    8.1252 C   0  0  0  0  0  4           0  0  0
   -4.2076    1.1721    4.8278 C   0  0  0  0  0  4           0  0  0
    1.7788   -2.5157    0.0058 C   0  0  0  0  0  4           0  0  0
    0.1768   -3.8913   -1.0604 C   0  0  0  0  0  4           0  0  0
    0.0000    0.0000    0.0000 C   0  0  0  0  0  4           0  0  0
    1.7865    2.5211   -0.0017 C   0  0  0  0  0  4           0  0  0
    2.5423    3.3936   -0.9988 C   0  0  0  0  0  4           0  0  0
    2.0795    4.8504   -1.0356 C   0  0  0  0  0  4           0  0  0
    2.8538    5.6911   -2.0399 C   0  0  0  0  0  4           0  0  0
  1  7  1  0     0  0
  2 22  2  0     0  0
  3 23  1  0     0  0
  3 24  1  0     0  0
  4 22  1  0     0  0
  5  8  1  0     0  0
  5  9  1  0     0  0
  5 25  1  0     0  0
  6  7  1  0     0  0
  6  8  2  0     0  0
  7  9  2  0     0  0
  8 26  1  0     0  0
  9 23  1  0     0  0
 10 11  1  0     0  0
 10 12  1  0     0  0
 10 14  2  0     0  0
 11 15  2  0     0  0
 11 16  1  0     0  0
 12 17  2  0     0  0
 12 22  1  0     0  0
 13 18  2  0     0  0
 13 19  1  0     0  0
 13 25  1  0     0  0
 14 20  1  0     0  0
 15 18  1  0     0  0
 16 19  2  0     0  0
 17 21  1  0     0  0
 20 21  2  0     0  0
 26 27  1  0     0  0
 27 28  1  0     0  0
 28 29  1  0     0  0
M  END
> <standard_type>
pIC50

> <# Confs.>
25

> <canonical_smiles>
ClC(N=C1CCCC)=C(COC)N1CC2=CC=C(C3=CC=CC=C3C(O)=O)C=C2

> <standard_relation>
=

> <Publication_ID>
nan

> <predicted_activity_value>
6.920818753952375

> <actual_activity_value>
7.00436480540245

> <Compound>
8

> <standard_units>
nM

> hash
1825488953729453991

$$$$
8_
XXILIB    08252103503D 0   0.00000     0.00000

 29 31  0     1  0            999 V2000
    5.0074   -1.4914   -0.0122 Cl  0  0  0  0  0  1           0  0  0
    0.9600   -0.7200    5.9247 O   0  0  0  0  0  2           0  0  0
    0.7380   -2.5888   -0.9589 O   0  0  0  0  0  2           0  0  0
    0.6999    1.1956    7.1327 O   0  0  0  0  0  2           0  0  0
    1.4523   -0.0000   -0.0000 N   0  0  0  0  0  3           0  0  0
    3.5393    0.7630   -0.0025 N   0  0  0  0  0  3           0  0  0
    3.5500   -0.6068   -0.0019 C   0  0  0  0  0  4           0  0  0
    2.2690    1.1150    0.0000 C   0  0  0  0  0  4           0  0  0
    2.2653   -1.1171    0.0044 C   0  0  0  0  0  4           0  0  0
   -2.0446   -0.0040    5.4234 C   0  0  0  0  0  4           0  0  0
   -1.5306   -0.0017    4.0471 C   0  0  0  0  0  4           0  0  0
   -1.2174    0.0071    6.5680 C   0  0  0  0  0  4           0  0  0
   -0.5425    0.0000    1.3966 C   0  0  0  0  0  4           0  0  0
   -3.4366   -0.0486    5.6404 C   0  0  0  0  0  4           0  0  0
   -1.2915    1.2039    3.3707 C   0  0  0  0  0  4           0  0  0
   -1.2647   -1.2060    3.3790 C   0  0  0  0  0  4           0  0  0
   -1.7571   -0.0533    7.8611 C   0  0  0  0  0  4           0  0  0
   -0.8009    1.2048    2.0617 C   0  0  0  0  0  4           0  0  0
   -0.7743   -1.2055    2.0702 C   0  0  0  0  0  4           0  0  0
   -3.9760   -0.0952    6.9295 C   0  0  0  0  0  4           0  0  0
   -3.1366   -0.1017    8.0380 C   0  0  0  0  0  4           0  0  0
    0.2506    0.0942    6.4908 C   0  0  0  0  0  4           0  0  0
    1.7788   -2.5157    0.0058 C   0  0  0  0  0  4           0  0  0
    0.1768   -3.8913   -1.0604 C   0  0  0  0  0  4           0  0  0
    0.0000    0.0000    0.0000 C   0  0  0  0  0  4           0  0  0
    1.7865    2.5211   -0.0017 C   0  0  0  0  0  4           0  0  0
    2.5423    3.3936   -0.9988 C   0  0  0  0  0  4           0  0  0
    2.4340    2.9263   -2.4506 C   0  0  0  0  0  4           0  0  0
    3.1988    3.8184   -3.4171 C   0  0  0  0  0  4           0  0  0
  1  7  1  0     0  0
  2 22  2  0     0  0
  3 23  1  0     0  0
  3 24  1  0     0  0
  4 22  1  0     0  0
  5  8  1  0     0  0
  5  9  1  0     0  0
  5 25  1  0     0  0
  6  7  1  0     0  0
  6  8  2  0     0  0
  7  9  2  0     0  0
  8 26  1  0     0  0
  9 23  1  0     0  0
 10 11  1  0     0  0
 10 12  1  0     0  0
 10 14  2  0     0  0
 11 15  2  0     0  0
 11 16  1  0     0  0
 12 17  2  0     0  0
 12 22  1  0     0  0
 13 18  2  0     0  0
 13 19  1  0     0  0
 13 25  1  0     0  0
 14 20  1  0     0  0
 15 18  1  0     0  0
 16 19  2  0     0  0
 17 21  1  0     0  0
 20 21  2  0     0  0
 26 27  1  0     0  0
 27 28  1  0     0  0
 28 29  1  0     0  0
M  END
> <standard_type>
pIC50

> <# Confs.>
25

> <canonical_smiles>
ClC(N=C1CCCC)=C(COC)N1CC2=CC=C(C3=CC=CC=C3C(O)=O)C=C2

> <standard_relation>
=

> <Publication_ID>
nan

> <predicted_activity_value>
6.920818753952375

> <actual_activity_value>
7.00436480540245

> <Compound>
8

> <standard_units>
nM

> hash
1825488953729453991

$$$$
8_
XXILIB    08252103503D 0   0.00000     0.00000

 29 31  0     1  0            999 V2000
    5.0074   -1.4914   -0.0122 Cl  0  0  0  0  0  1           0  0  0
    0.8597    1.0190    5.9803 O   0  0  0  0  0  2           0  0  0
    0.7380   -2.5888   -0.9589 O   0  0  0  0  0  2           0  0  0
    0.8258   -0.9885    7.0600 O   0  0  0  0  0  2           0  0  0
    1.4523   -0.0000   -0.0000 N   0  0  0  0  0  3           0  0  0
    3.5393    0.7630   -0.0025 N   0  0  0  0  0  3           0  0  0
    3.5500   -0.6068   -0.0019 C   0  0  0  0  0  4           0  0  0
    2.2690    1.1150    0.0000 C   0  0  0  0  0  4           0  0  0
    2.2653   -1.1171    0.0044 C   0  0  0  0  0  4           0  0  0
   -2.0446   -0.0040    5.4234 C   0  0  0  0  0  4           0  0  0
   -1.5306   -0.0017    4.0471 C   0  0  0  0  0  4           0  0  0
   -1.2174    0.0071    6.5680 C   0  0  0  0  0  4           0  0  0
   -0.5425    0.0000    1.3966 C   0  0  0  0  0  4           0  0  0
   -3.4366   -0.0486    5.6404 C   0  0  0  0  0  4           0  0  0
   -1.2915    1.2039    3.3707 C   0  0  0  0  0  4           0  0  0
   -1.2647   -1.2060    3.3790 C   0  0  0  0  0  4           0  0  0
   -1.7571   -0.0533    7.8611 C   0  0  0  0  0  4           0  0  0
   -0.8009    1.2048    2.0617 C   0  0  0  0  0  4           0  0  0
   -0.7743   -1.2055    2.0702 C   0  0  0  0  0  4           0  0  0
   -3.9760   -0.0952    6.9295 C   0  0  0  0  0  4           0  0  0
   -3.1366   -0.1017    8.0380 C   0  0  0  0  0  4           0  0  0
    0.2506    0.0942    6.4908 C   0  0  0  0  0  4           0  0  0
    1.7788   -2.5157    0.0058 C   0  0  0  0  0  4           0  0  0
    0.1768   -3.8913   -1.0604 C   0  0  0  0  0  4           0  0  0
    0.0000    0.0000    0.0000 C   0  0  0  0  0  4           0  0  0
    1.7865    2.5211   -0.0017 C   0  0  0  0  0  4           0  0  0
    2.5423    3.3936   -0.9988 C   0  0  0  0  0  4           0  0  0
    2.4340    2.9263   -2.4506 C   0  0  0  0  0  4           0  0  0
    3.1988    3.8184   -3.4171 C   0  0  0  0  0  4           0  0  0
  1  7  1  0     0  0
  2 22  2  0     0  0
  3 23  1  0     0  0
  3 24  1  0     0  0
  4 22  1  0     0  0
  5  8  1  0     0  0
  5  9  1  0     0  0
  5 25  1  0     0  0
  6  7  1  0     0  0
  6  8  2  0     0  0
  7  9  2  0     0  0
  8 26  1  0     0  0
  9 23  1  0     0  0
 10 11  1  0     0  0
 10 12  1  0     0  0
 10 14  2  0     0  0
 11 15  2  0     0  0
 11 16  1  0     0  0
 12 17  2  0     0  0
 12 22  1  0     0  0
 13 18  2  0     0  0
 13 19  1  0     0  0
 13 25  1  0     0  0
 14 20  1  0     0  0
 15 18  1  0     0  0
 16 19  2  0     0  0
 17 21  1  0     0  0
 20 21  2  0     0  0
 26 27  1  0     0  0
 27 28  1  0     0  0
 28 29  1  0     0  0
M  END
> <standard_type>
pIC50

> <# Confs.>
25

> <canonical_smiles>
ClC(N=C1CCCC)=C(COC)N1CC2=CC=C(C3=CC=CC=C3C(O)=O)C=C2

> <standard_relation>
=

> <Publication_ID>
nan

> <predicted_activity_value>
6.920818753952375

> <actual_activity_value>
7.00436480540245

> <Compound>
8

> <standard_units>
nM

> hash
1825488953729453991

$$$$
8_
XXILIB    08252103503D 0   0.00000     0.00000

 29 31  0     1  0            999 V2000
    5.0074    1.4914    0.0122 Cl  0  0  0  0  0  1           0  0  0
   -4.7156    0.5693    3.8976 O   0  0  0  0  0  2           0  0  0
    0.7328    2.5851   -0.9651 O   0  0  0  0  0  2           0  0  0
   -4.4169    2.4777    5.1081 O   0  0  0  0  0  2           0  0  0
    1.4523    0.0000    0.0000 N   0  0  0  0  0  3           0  0  0
    3.5393   -0.7630    0.0025 N   0  0  0  0  0  3           0  0  0
    3.5500    0.6068    0.0019 C   0  0  0  0  0  4           0  0  0
    2.2690   -1.1150    0.0000 C   0  0  0  0  0  4           0  0  0
    2.2653    1.1171   -0.0044 C   0  0  0  0  0  4           0  0  0
   -2.0446   -0.0040    5.4234 C   0  0  0  0  0  4           0  0  0
   -1.5306   -0.0017    4.0471 C   0  0  0  0  0  4           0  0  0
   -3.2781    0.5717    5.7995 C   0  0  0  0  0  4           0  0  0
   -0.5425    0.0000    1.3966 C   0  0  0  0  0  4           0  0  0
   -1.2689   -0.5815    6.4490 C   0  0  0  0  0  4           0  0  0
   -1.2915    1.2039    3.3707 C   0  0  0  0  0  4           0  0  0
   -1.2647   -1.2060    3.3790 C   0  0  0  0  0  4           0  0  0
   -3.6975    0.5933    7.1375 C   0  0  0  0  0  4           0  0  0
   -0.8009    1.2048    2.0617 C   0  0  0  0  0  4           0  0  0
   -0.7743   -1.2055    2.0702 C   0  0  0  0  0  4           0  0  0
   -1.6926   -0.5725    7.7814 C   0  0  0  0  0  4           0  0  0
   -2.9036    0.0180    8.1252 C   0  0  0  0  0  4           0  0  0
   -4.2076    1.1721    4.8278 C   0  0  0  0  0  4           0  0  0
    1.7788    2.5157   -0.0058 C   0  0  0  0  0  4           0  0  0
    0.1710    3.8871   -1.0687 C   0  0  0  0  0  4           0  0  0
    0.0000    0.0000    0.0000 C   0  0  0  0  0  4           0  0  0
    1.7865   -2.5211    0.0017 C   0  0  0  0  0  4           0  0  0
    2.5400   -3.3953   -0.9956 C   0  0  0  0  0  4           0  0  0
    2.4284   -2.9304   -2.4480 C   0  0  0  0  0  4           0  0  0
    3.1910   -3.8241   -3.4146 C   0  0  0  0  0  4           0  0  0
  1  7  1  0     0  0
  2 22  2  0     0  0
  3 23  1  0     0  0
  3 24  1  0     0  0
  4 22  1  0     0  0
  5  8  1  0     0  0
  5  9  1  0     0  0
  5 25  1  0     0  0
  6  7  1  0     0  0
  6  8  2  0     0  0
  7  9  2  0     0  0
  8 26  1  0     0  0
  9 23  1  0     0  0
 10 11  1  0     0  0
 10 12  1  0     0  0
 10 14  2  0     0  0
 11 15  2  0     0  0
 11 16  1  0     0  0
 12 17  2  0     0  0
 12 22  1  0     0  0
 13 18  2  0     0  0
 13 19  1  0     0  0
 13 25  1  0     0  0
 14 20  1  0     0  0
 15 18  1  0     0  0
 16 19  2  0     0  0
 17 21  1  0     0  0
 20 21  2  0     0  0
 26 27  1  0     0  0
 27 28  1  0     0  0
 28 29  1  0     0  0
M  END
> <standard_type>
pIC50

> <# Confs.>
25

> <canonical_smiles>
ClC(N=C1CCCC)=C(COC)N1CC2=CC=C(C3=CC=CC=C3C(O)=O)C=C2

> <standard_relation>
=

> <Publication_ID>
nan

> <predicted_activity_value>
6.920818753952375

> <actual_activity_value>
7.00436480540245

> <Compound>
8

> <standard_units>
nM

> hash
1825488953729453991

$$$$
8_
XXILIB    08252103503D 0   0.00000     0.00000

 29 31  0     1  0            999 V2000
    5.0074    1.4914    0.0122 Cl  0  0  0  0  0  1           0  0  0
   -0.7206    2.7501    5.4450 O   0  0  0  0  0  2           0  0  0
    1.6404    2.9003   -1.3667 O   0  0  0  0  0  2           0  0  0
    0.4450    1.5680    7.0072 O   0  0  0  0  0  2           0  0  0
    1.4523   -0.0000   -0.0000 N   0  0  0  0  0  3           0  0  0
    3.5393   -0.7630    0.0025 N   0  0  0  0  0  3           0  0  0
    3.5500    0.6068    0.0019 C   0  0  0  0  0  4           0  0  0
    2.2690   -1.1150    0.0000 C   0  0  0  0  0  4           0  0  0
    2.2653    1.1171   -0.0044 C   0  0  0  0  0  4           0  0  0
   -2.1395   -0.0382    5.3866 C   0  0  0  0  0  4           0  0  0
   -1.5933   -0.0262    4.0227 C   0  0  0  0  0  4           0  0  0
   -1.6696    0.7952    6.4254 C   0  0  0  0  0  4           0  0  0
   -0.5425    0.0000    1.3966 C   0  0  0  0  0  4           0  0  0
   -3.1711   -0.9429    5.7091 C   0  0  0  0  0  4           0  0  0
   -0.5245   -0.8631    3.6687 C   0  0  0  0  0  4           0  0  0
   -2.1307    0.8212    3.0426 C   0  0  0  0  0  4           0  0  0
   -2.1867    0.7049    7.7259 C   0  0  0  0  0  4           0  0  0
   -0.0068   -0.8519    2.3702 C   0  0  0  0  0  4           0  0  0
   -1.6132    0.8328    1.7443 C   0  0  0  0  0  4           0  0  0
   -3.6966   -1.0242    7.0023 C   0  0  0  0  0  4           0  0  0
   -3.2017   -0.2038    8.0100 C   0  0  0  0  0  4           0  0  0
   -0.6264    1.8142    6.2208 C   0  0  0  0  0  4           0  0  0
    1.7788    2.5157   -0.0058 C   0  0  0  0  0  4           0  0  0
    1.1753    4.2360   -1.5130 C   0  0  0  0  0  4           0  0  0
    0.0000   -0.0000    0.0000 C   0  0  0  0  0  4           0  0  0
    1.7865   -2.5211    0.0017 C   0  0  0  0  0  4           0  0  0
    2.5423   -3.3936    0.9988 C   0  0  0  0  0  4           0  0  0
    2.0795   -4.8504    1.0356 C   0  0  0  0  0  4           0  0  0
    2.8538   -5.6911    2.0399 C   0  0  0  0  0  4           0  0  0
  1  7  1  0     0  0
  2 22  2  0     0  0
  3 23  1  0     0  0
  3 24  1  0     0  0
  4 22  1  0     0  0
  5  8  1  0     0  0
  5  9  1  0     0  0
  5 25  1  0     0  0
  6  7  1  0     0  0
  6  8  2  0     0  0
  7  9  2  0     0  0
  8 26  1  0     0  0
  9 23  1  0     0  0
 10 11  1  0     0  0
 10 12  1  0     0  0
 10 14  2  0     0  0
 11 15  2  0     0  0
 11 16  1  0     0  0
 12 17  2  0     0  0
 12 22  1  0     0  0
 13 18  2  0     0  0
 13 19  1  0     0  0
 13 25  1  0     0  0
 14 20  1  0     0  0
 15 18  1  0     0  0
 16 19  2  0     0  0
 17 21  1  0     0  0
 20 21  2  0     0  0
 26 27  1  0     0  0
 27 28  1  0     0  0
 28 29  1  0     0  0
M  END
> <standard_type>
pIC50

> <# Confs.>
25

> <canonical_smiles>
ClC(N=C1CCCC)=C(COC)N1CC2=CC=C(C3=CC=CC=C3C(O)=O)C=C2

> <standard_relation>
=

> <Publication_ID>
nan

> <predicted_activity_value>
6.920818753952375

> <actual_activity_value>
7.00436480540245

> <Compound>
8

> <standard_units>
nM

> hash
1825488953729453991

$$$$
8_
XXILIB    08252103503D 0   0.00000     0.00000

 29 31  0     1  0            999 V2000
    5.0074   -1.4914   -0.0122 Cl  0  0  0  0  0  1           0  0  0
   -0.4362   -2.5833    5.4690 O   0  0  0  0  0  2           0  0  0
    1.6478   -2.9056   -1.3543 O   0  0  0  0  0  2           0  0  0
    0.4951   -1.3412    7.1382 O   0  0  0  0  0  2           0  0  0
    1.4523    0.0000    0.0000 N   0  0  0  0  0  3           0  0  0
    3.5393    0.7630   -0.0025 N   0  0  0  0  0  3           0  0  0
    3.5500   -0.6068   -0.0019 C   0  0  0  0  0  4           0  0  0
    2.2690    1.1150    0.0000 C   0  0  0  0  0  4           0  0  0
    2.2653   -1.1171    0.0044 C   0  0  0  0  0  4           0  0  0
   -2.1342    0.0438    5.3886 C   0  0  0  0  0  4           0  0  0
   -1.5911    0.0286    4.0236 C   0  0  0  0  0  4           0  0  0
   -1.6465   -0.7703    6.4344 C   0  0  0  0  0  4           0  0  0
   -0.5425    0.0000    1.3966 C   0  0  0  0  0  4           0  0  0
   -3.2217    0.8886    5.6894 C   0  0  0  0  0  4           0  0  0
   -2.1116   -0.8395    3.0522 C   0  0  0  0  0  4           0  0  0
   -0.5409    0.8844    3.6602 C   0  0  0  0  0  4           0  0  0
   -2.2373   -0.7592    7.7063 C   0  0  0  0  0  4           0  0  0
   -1.5950   -0.8519    1.7533 C   0  0  0  0  0  4           0  0  0
   -0.0240    0.8721    2.3617 C   0  0  0  0  0  4           0  0  0
   -3.8028    0.9102    6.9610 C   0  0  0  0  0  4           0  0  0
   -3.3133    0.0840    7.9666 C   0  0  0  0  0  4           0  0  0
   -0.4908   -1.6687    6.2735 C   0  0  0  0  0  4           0  0  0
    1.7788   -2.5157    0.0058 C   0  0  0  0  0  4           0  0  0
    1.1835   -4.2419   -1.4980 C   0  0  0  0  0  4           0  0  0
   -0.0000    0.0000    0.0000 C   0  0  0  0  0  4           0  0  0
    1.7865    2.5211   -0.0017 C   0  0  0  0  0  4           0  0  0
    2.5423    3.3936   -0.9988 C   0  0  0  0  0  4           0  0  0
    2.4340    2.9263   -2.4506 C   0  0  0  0  0  4           0  0  0
    3.1988    3.8184   -3.4171 C   0  0  0  0  0  4           0  0  0
  1  7  1  0     0  0
  2 22  2  0     0  0
  3 23  1  0     0  0
  3 24  1  0     0  0
  4 22  1  0     0  0
  5  8  1  0     0  0
  5  9  1  0     0  0
  5 25  1  0     0  0
  6  7  1  0     0  0
  6  8  2  0     0  0
  7  9  2  0     0  0
  8 26  1  0     0  0
  9 23  1  0     0  0
 10 11  1  0     0  0
 10 12  1  0     0  0
 10 14  2  0     0  0
 11 15  2  0     0  0
 11 16  1  0     0  0
 12 17  2  0     0  0
 12 22  1  0     0  0
 13 18  2  0     0  0
 13 19  1  0     0  0
 13 25  1  0     0  0
 14 20  1  0     0  0
 15 18  1  0     0  0
 16 19  2  0     0  0
 17 21  1  0     0  0
 20 21  2  0     0  0
 26 27  1  0     0  0
 27 28  1  0     0  0
 28 29  1  0     0  0
M  END
> <standard_type>
pIC50

> <# Confs.>
25

> <canonical_smiles>
ClC(N=C1CCCC)=C(COC)N1CC2=CC=C(C3=CC=CC=C3C(O)=O)C=C2

> <standard_relation>
=

> <Publication_ID>
nan

> <predicted_activity_value>
6.920818753952375

> <actual_activity_value>
7.00436480540245

> <Compound>
8

> <standard_units>
nM

> hash
1825488953729453991

$$$$
8_
XXILIB    08252103503D 0   0.00000     0.00000

 29 31  0     1  0            999 V2000
    5.0074    1.4914    0.0122 Cl  0  0  0  0  0  1           0  0  0
   -4.7156    0.5693    3.8976 O   0  0  0  0  0  2           0  0  0
    0.7328    2.5851   -0.9651 O   0  0  0  0  0  2           0  0  0
   -4.4169    2.4777    5.1081 O   0  0  0  0  0  2           0  0  0
    1.4523    0.0000    0.0000 N   0  0  0  0  0  3           0  0  0
    3.5393   -0.7630    0.0025 N   0  0  0  0  0  3           0  0  0
    3.5500    0.6068    0.0019 C   0  0  0  0  0  4           0  0  0
    2.2690   -1.1150    0.0000 C   0  0  0  0  0  4           0  0  0
    2.2653    1.1171   -0.0044 C   0  0  0  0  0  4           0  0  0
   -2.0446   -0.0040    5.4234 C   0  0  0  0  0  4           0  0  0
   -1.5306   -0.0017    4.0471 C   0  0  0  0  0  4           0  0  0
   -3.2781    0.5717    5.7995 C   0  0  0  0  0  4           0  0  0
   -0.5425    0.0000    1.3966 C   0  0  0  0  0  4           0  0  0
   -1.2689   -0.5815    6.4490 C   0  0  0  0  0  4           0  0  0
   -1.2915    1.2039    3.3707 C   0  0  0  0  0  4           0  0  0
   -1.2647   -1.2060    3.3790 C   0  0  0  0  0  4           0  0  0
   -3.6975    0.5933    7.1375 C   0  0  0  0  0  4           0  0  0
   -0.8009    1.2048    2.0617 C   0  0  0  0  0  4           0  0  0
   -0.7743   -1.2055    2.0702 C   0  0  0  0  0  4           0  0  0
   -1.6926   -0.5725    7.7814 C   0  0  0  0  0  4           0  0  0
   -2.9036    0.0180    8.1252 C   0  0  0  0  0  4           0  0  0
   -4.2076    1.1721    4.8278 C   0  0  0  0  0  4           0  0  0
    1.7788    2.5157   -0.0058 C   0  0  0  0  0  4           0  0  0
    0.1710    3.8871   -1.0687 C   0  0  0  0  0  4           0  0  0
    0.0000    0.0000    0.0000 C   0  0  0  0  0  4           0  0  0
    1.7865   -2.5211    0.0017 C   0  0  0  0  0  4           0  0  0
    2.5400   -3.3953   -0.9956 C   0  0  0  0  0  4           0  0  0
    2.0772   -4.8522   -1.0289 C   0  0  0  0  0  4           0  0  0
    2.8491   -5.6945   -2.0335 C   0  0  0  0  0  4           0  0  0
  1  7  1  0     0  0
  2 22  2  0     0  0
  3 23  1  0     0  0
  3 24  1  0     0  0
  4 22  1  0     0  0
  5  8  1  0     0  0
  5  9  1  0     0  0
  5 25  1  0     0  0
  6  7  1  0     0  0
  6  8  2  0     0  0
  7  9  2  0     0  0
  8 26  1  0     0  0
  9 23  1  0     0  0
 10 11  1  0     0  0
 10 12  1  0     0  0
 10 14  2  0     0  0
 11 15  2  0     0  0
 11 16  1  0     0  0
 12 17  2  0     0  0
 12 22  1  0     0  0
 13 18  2  0     0  0
 13 19  1  0     0  0
 13 25  1  0     0  0
 14 20  1  0     0  0
 15 18  1  0     0  0
 16 19  2  0     0  0
 17 21  1  0     0  0
 20 21  2  0     0  0
 26 27  1  0     0  0
 27 28  1  0     0  0
 28 29  1  0     0  0
M  END
> <standard_type>
pIC50

> <# Confs.>
25

> <canonical_smiles>
ClC(N=C1CCCC)=C(COC)N1CC2=CC=C(C3=CC=CC=C3C(O)=O)C=C2

> <standard_relation>
=

> <Publication_ID>
nan

> <predicted_activity_value>
6.920818753952375

> <actual_activity_value>
7.00436480540245

> <Compound>
8

> <standard_units>
nM

> hash
1825488953729453991

$$$$
8_
XXILIB    08252103503D 0   0.00000     0.00000

 29 31  0     1  0            999 V2000
    5.0074   -1.4914   -0.0122 Cl  0  0  0  0  0  1           0  0  0
   -4.5330    1.3774    3.8855 O   0  0  0  0  0  2           0  0  0
    1.6478   -2.9056   -1.3543 O   0  0  0  0  0  2           0  0  0
   -3.8155    3.0509    5.2570 O   0  0  0  0  0  2           0  0  0
    1.4523    0.0000    0.0000 N   0  0  0  0  0  3           0  0  0
    3.5393    0.7630   -0.0025 N   0  0  0  0  0  3           0  0  0
    3.5500   -0.6068   -0.0019 C   0  0  0  0  0  4           0  0  0
    2.2690    1.1150    0.0000 C   0  0  0  0  0  4           0  0  0
    2.2653   -1.1171    0.0044 C   0  0  0  0  0  4           0  0  0
   -2.1342    0.0438    5.3886 C   0  0  0  0  0  4           0  0  0
   -1.5911    0.0286    4.0236 C   0  0  0  0  0  4           0  0  0
   -3.2008    0.8743    5.7976 C   0  0  0  0  0  4           0  0  0
   -0.5425    0.0000    1.3966 C   0  0  0  0  0  4           0  0  0
   -1.5571   -0.7866    6.3705 C   0  0  0  0  0  4           0  0  0
   -2.1116   -0.8395    3.0522 C   0  0  0  0  0  4           0  0  0
   -0.5409    0.8844    3.6602 C   0  0  0  0  0  4           0  0  0
   -3.6452    0.8923    7.1276 C   0  0  0  0  0  4           0  0  0
   -1.5950   -0.8519    1.7533 C   0  0  0  0  0  4           0  0  0
   -0.0240    0.8721    2.3617 C   0  0  0  0  0  4           0  0  0
   -2.0085   -0.7791    7.6938 C   0  0  0  0  0  4           0  0  0
   -3.0486    0.0626    8.0722 C   0  0  0  0  0  4           0  0  0
   -3.9232    1.7605    4.8694 C   0  0  0  0  0  4           0  0  0
    1.7788   -2.5157    0.0058 C   0  0  0  0  0  4           0  0  0
    1.1835   -4.2419   -1.4980 C   0  0  0  0  0  4           0  0  0
   -0.0000    0.0000    0.0000 C   0  0  0  0  0  4           0  0  0
    1.7865    2.5211   -0.0017 C   0  0  0  0  0  4           0  0  0
    2.5423    3.3936   -0.9988 C   0  0  0  0  0  4           0  0  0
    2.4340    2.9263   -2.4506 C   0  0  0  0  0  4           0  0  0
    3.1988    3.8184   -3.4171 C   0  0  0  0  0  4           0  0  0
  1  7  1  0     0  0
  2 22  2  0     0  0
  3 23  1  0     0  0
  3 24  1  0     0  0
  4 22  1  0     0  0
  5  8  1  0     0  0
  5  9  1  0     0  0
  5 25  1  0     0  0
  6  7  1  0     0  0
  6  8  2  0     0  0
  7  9  2  0     0  0
  8 26  1  0     0  0
  9 23  1  0     0  0
 10 11  1  0     0  0
 10 12  1  0     0  0
 10 14  2  0     0  0
 11 15  2  0     0  0
 11 16  1  0     0  0
 12 17  2  0     0  0
 12 22  1  0     0  0
 13 18  2  0     0  0
 13 19  1  0     0  0
 13 25  1  0     0  0
 14 20  1  0     0  0
 15 18  1  0     0  0
 16 19  2  0     0  0
 17 21  1  0     0  0
 20 21  2  0     0  0
 26 27  1  0     0  0
 27 28  1  0     0  0
 28 29  1  0     0  0
M  END
> <standard_type>
pIC50

> <# Confs.>
25

> <canonical_smiles>
ClC(N=C1CCCC)=C(COC)N1CC2=CC=C(C3=CC=CC=C3C(O)=O)C=C2

> <standard_relation>
=

> <Publication_ID>
nan

> <predicted_activity_value>
6.920818753952375

> <actual_activity_value>
7.00436480540245

> <Compound>
8

> <standard_units>
nM

> hash
1825488953729453991

$$$$
8_
XXILIB    08252103503D 0   0.00000     0.00000

 29 31  0     1  0            999 V2000
    5.0074   -1.4914   -0.0122 Cl  0  0  0  0  0  1           0  0  0
   -0.4362   -2.5833    5.4690 O   0  0  0  0  0  2           0  0  0
    1.6478   -2.9056   -1.3543 O   0  0  0  0  0  2           0  0  0
    0.4951   -1.3412    7.1382 O   0  0  0  0  0  2           0  0  0
    1.4523    0.0000    0.0000 N   0  0  0  0  0  3           0  0  0
    3.5393    0.7630   -0.0025 N   0  0  0  0  0  3           0  0  0
    3.5500   -0.6068   -0.0019 C   0  0  0  0  0  4           0  0  0
    2.2690    1.1150    0.0000 C   0  0  0  0  0  4           0  0  0
    2.2653   -1.1171    0.0044 C   0  0  0  0  0  4           0  0  0
   -2.1342    0.0438    5.3886 C   0  0  0  0  0  4           0  0  0
   -1.5911    0.0286    4.0236 C   0  0  0  0  0  4           0  0  0
   -1.6465   -0.7703    6.4344 C   0  0  0  0  0  4           0  0  0
   -0.5425    0.0000    1.3966 C   0  0  0  0  0  4           0  0  0
   -3.2217    0.8886    5.6894 C   0  0  0  0  0  4           0  0  0
   -2.1116   -0.8395    3.0522 C   0  0  0  0  0  4           0  0  0
   -0.5409    0.8844    3.6602 C   0  0  0  0  0  4           0  0  0
   -2.2373   -0.7592    7.7063 C   0  0  0  0  0  4           0  0  0
   -1.5950   -0.8519    1.7533 C   0  0  0  0  0  4           0  0  0
   -0.0240    0.8721    2.3617 C   0  0  0  0  0  4           0  0  0
   -3.8028    0.9102    6.9610 C   0  0  0  0  0  4           0  0  0
   -3.3133    0.0840    7.9666 C   0  0  0  0  0  4           0  0  0
   -0.4908   -1.6687    6.2735 C   0  0  0  0  0  4           0  0  0
    1.7788   -2.5157    0.0058 C   0  0  0  0  0  4           0  0  0
    1.1835   -4.2419   -1.4980 C   0  0  0  0  0  4           0  0  0
   -0.0000    0.0000    0.0000 C   0  0  0  0  0  4           0  0  0
    1.7865    2.5211   -0.0017 C   0  0  0  0  0  4           0  0  0
    2.5423    3.3936   -0.9988 C   0  0  0  0  0  4           0  0  0
    2.0795    4.8504   -1.0356 C   0  0  0  0  0  4           0  0  0
    2.8538    5.6911   -2.0399 C   0  0  0  0  0  4           0  0  0
  1  7  1  0     0  0
  2 22  2  0     0  0
  3 23  1  0     0  0
  3 24  1  0     0  0
  4 22  1  0     0  0
  5  8  1  0     0  0
  5  9  1  0     0  0
  5 25  1  0     0  0
  6  7  1  0     0  0
  6  8  2  0     0  0
  7  9  2  0     0  0
  8 26  1  0     0  0
  9 23  1  0     0  0
 10 11  1  0     0  0
 10 12  1  0     0  0
 10 14  2  0     0  0
 11 15  2  0     0  0
 11 16  1  0     0  0
 12 17  2  0     0  0
 12 22  1  0     0  0
 13 18  2  0     0  0
 13 19  1  0     0  0
 13 25  1  0     0  0
 14 20  1  0     0  0
 15 18  1  0     0  0
 16 19  2  0     0  0
 17 21  1  0     0  0
 20 21  2  0     0  0
 26 27  1  0     0  0
 27 28  1  0     0  0
 28 29  1  0     0  0
M  END
> <standard_type>
pIC50

> <# Confs.>
25

> <canonical_smiles>
ClC(N=C1CCCC)=C(COC)N1CC2=CC=C(C3=CC=CC=C3C(O)=O)C=C2

> <standard_relation>
=

> <Publication_ID>
nan

> <predicted_activity_value>
6.920818753952375

> <actual_activity_value>
7.00436480540245

> <Compound>
8

> <standard_units>
nM

> hash
1825488953729453991

$$$$
8_
XXILIB    08252103503D 0   0.00000     0.00000

 29 31  0     1  0            999 V2000
    5.0074   -1.4914   -0.0122 Cl  0  0  0  0  0  1           0  0  0
   -4.5330    1.3774    3.8855 O   0  0  0  0  0  2           0  0  0
    1.6478   -2.9056   -1.3543 O   0  0  0  0  0  2           0  0  0
   -3.8155    3.0509    5.2570 O   0  0  0  0  0  2           0  0  0
    1.4523    0.0000    0.0000 N   0  0  0  0  0  3           0  0  0
    3.5393    0.7630   -0.0025 N   0  0  0  0  0  3           0  0  0
    3.5500   -0.6068   -0.0019 C   0  0  0  0  0  4           0  0  0
    2.2690    1.1150    0.0000 C   0  0  0  0  0  4           0  0  0
    2.2653   -1.1171    0.0044 C   0  0  0  0  0  4           0  0  0
   -2.1342    0.0438    5.3886 C   0  0  0  0  0  4           0  0  0
   -1.5911    0.0286    4.0236 C   0  0  0  0  0  4           0  0  0
   -3.2008    0.8743    5.7976 C   0  0  0  0  0  4           0  0  0
   -0.5425    0.0000    1.3966 C   0  0  0  0  0  4           0  0  0
   -1.5571   -0.7866    6.3705 C   0  0  0  0  0  4           0  0  0
   -2.1116   -0.8395    3.0522 C   0  0  0  0  0  4           0  0  0
   -0.5409    0.8844    3.6602 C   0  0  0  0  0  4           0  0  0
   -3.6452    0.8923    7.1276 C   0  0  0  0  0  4           0  0  0
   -1.5950   -0.8519    1.7533 C   0  0  0  0  0  4           0  0  0
   -0.0240    0.8721    2.3617 C   0  0  0  0  0  4           0  0  0
   -2.0085   -0.7791    7.6938 C   0  0  0  0  0  4           0  0  0
   -3.0486    0.0626    8.0722 C   0  0  0  0  0  4           0  0  0
   -3.9232    1.7605    4.8694 C   0  0  0  0  0  4           0  0  0
    1.7788   -2.5157    0.0058 C   0  0  0  0  0  4           0  0  0
    1.1835   -4.2419   -1.4980 C   0  0  0  0  0  4           0  0  0
   -0.0000    0.0000    0.0000 C   0  0  0  0  0  4           0  0  0
    1.7865    2.5211   -0.0017 C   0  0  0  0  0  4           0  0  0
    2.5423    3.3936   -0.9988 C   0  0  0  0  0  4           0  0  0
    2.0795    4.8504   -1.0356 C   0  0  0  0  0  4           0  0  0
    2.8538    5.6911   -2.0399 C   0  0  0  0  0  4           0  0  0
  1  7  1  0     0  0
  2 22  2  0     0  0
  3 23  1  0     0  0
  3 24  1  0     0  0
  4 22  1  0     0  0
  5  8  1  0     0  0
  5  9  1  0     0  0
  5 25  1  0     0  0
  6  7  1  0     0  0
  6  8  2  0     0  0
  7  9  2  0     0  0
  8 26  1  0     0  0
  9 23  1  0     0  0
 10 11  1  0     0  0
 10 12  1  0     0  0
 10 14  2  0     0  0
 11 15  2  0     0  0
 11 16  1  0     0  0
 12 17  2  0     0  0
 12 22  1  0     0  0
 13 18  2  0     0  0
 13 19  1  0     0  0
 13 25  1  0     0  0
 14 20  1  0     0  0
 15 18  1  0     0  0
 16 19  2  0     0  0
 17 21  1  0     0  0
 20 21  2  0     0  0
 26 27  1  0     0  0
 27 28  1  0     0  0
 28 29  1  0     0  0
M  END
> <standard_type>
pIC50

> <# Confs.>
25

> <canonical_smiles>
ClC(N=C1CCCC)=C(COC)N1CC2=CC=C(C3=CC=CC=C3C(O)=O)C=C2

> <standard_relation>
=

> <Publication_ID>
nan

> <predicted_activity_value>
6.920818753952375

> <actual_activity_value>
7.00436480540245

> <Compound>
8

> <standard_units>
nM

> hash
1825488953729453991

$$$$
8_
XXILIB    08252103503D 0   0.00000     0.00000

 29 31  0     1  0            999 V2000
    5.0074    1.4914    0.0122 Cl  0  0  0  0  0  1           0  0  0
   -0.7206    2.7501    5.4450 O   0  0  0  0  0  2           0  0  0
    1.6404    2.9003   -1.3667 O   0  0  0  0  0  2           0  0  0
    0.4450    1.5680    7.0072 O   0  0  0  0  0  2           0  0  0
    1.4523   -0.0000   -0.0000 N   0  0  0  0  0  3           0  0  0
    3.5393   -0.7630    0.0025 N   0  0  0  0  0  3           0  0  0
    3.5500    0.6068    0.0019 C   0  0  0  0  0  4           0  0  0
    2.2690   -1.1150    0.0000 C   0  0  0  0  0  4           0  0  0
    2.2653    1.1171   -0.0044 C   0  0  0  0  0  4           0  0  0
   -2.1395   -0.0382    5.3866 C   0  0  0  0  0  4           0  0  0
   -1.5933   -0.0262    4.0227 C   0  0  0  0  0  4           0  0  0
   -1.6696    0.7952    6.4254 C   0  0  0  0  0  4           0  0  0
   -0.5425    0.0000    1.3966 C   0  0  0  0  0  4           0  0  0
   -3.1711   -0.9429    5.7091 C   0  0  0  0  0  4           0  0  0
   -0.5245   -0.8631    3.6687 C   0  0  0  0  0  4           0  0  0
   -2.1307    0.8212    3.0426 C   0  0  0  0  0  4           0  0  0
   -2.1867    0.7049    7.7259 C   0  0  0  0  0  4           0  0  0
   -0.0068   -0.8519    2.3702 C   0  0  0  0  0  4           0  0  0
   -1.6132    0.8328    1.7443 C   0  0  0  0  0  4           0  0  0
   -3.6966   -1.0242    7.0023 C   0  0  0  0  0  4           0  0  0
   -3.2017   -0.2038    8.0100 C   0  0  0  0  0  4           0  0  0
   -0.6264    1.8142    6.2208 C   0  0  0  0  0  4           0  0  0
    1.7788    2.5157   -0.0058 C   0  0  0  0  0  4           0  0  0
    1.1753    4.2360   -1.5130 C   0  0  0  0  0  4           0  0  0
    0.0000   -0.0000    0.0000 C   0  0  0  0  0  4           0  0  0
    1.7865   -2.5211    0.0017 C   0  0  0  0  0  4           0  0  0
    2.5400   -3.3953   -0.9956 C   0  0  0  0  0  4           0  0  0
    2.4284   -2.9304   -2.4480 C   0  0  0  0  0  4           0  0  0
    3.1910   -3.8241   -3.4146 C   0  0  0  0  0  4           0  0  0
  1  7  1  0     0  0
  2 22  2  0     0  0
  3 23  1  0     0  0
  3 24  1  0     0  0
  4 22  1  0     0  0
  5  8  1  0     0  0
  5  9  1  0     0  0
  5 25  1  0     0  0
  6  7  1  0     0  0
  6  8  2  0     0  0
  7  9  2  0     0  0
  8 26  1  0     0  0
  9 23  1  0     0  0
 10 11  1  0     0  0
 10 12  1  0     0  0
 10 14  2  0     0  0
 11 15  2  0     0  0
 11 16  1  0     0  0
 12 17  2  0     0  0
 12 22  1  0     0  0
 13 18  2  0     0  0
 13 19  1  0     0  0
 13 25  1  0     0  0
 14 20  1  0     0  0
 15 18  1  0     0  0
 16 19  2  0     0  0
 17 21  1  0     0  0
 20 21  2  0     0  0
 26 27  1  0     0  0
 27 28  1  0     0  0
 28 29  1  0     0  0
M  END
> <standard_type>
pIC50

> <# Confs.>
25

> <canonical_smiles>
ClC(N=C1CCCC)=C(COC)N1CC2=CC=C(C3=CC=CC=C3C(O)=O)C=C2

> <standard_relation>
=

> <Publication_ID>
nan

> <predicted_activity_value>
6.920818753952375

> <actual_activity_value>
7.00436480540245

> <Compound>
8

> <standard_units>
nM

> hash
1825488953729453991

$$$$
8_
XXILIB    08252103503D 0   0.00000     0.00000

 29 31  0     1  0            999 V2000
    5.0074   -1.4914   -0.0122 Cl  0  0  0  0  0  1           0  0  0
   -3.4032    2.6589    4.2298 O   0  0  0  0  0  2           0  0  0
    1.6478   -2.9056   -1.3543 O   0  0  0  0  0  2           0  0  0
   -5.2361    1.4422    4.8267 O   0  0  0  0  0  2           0  0  0
    1.4523    0.0000    0.0000 N   0  0  0  0  0  3           0  0  0
    3.5393    0.7630   -0.0025 N   0  0  0  0  0  3           0  0  0
    3.5500   -0.6068   -0.0019 C   0  0  0  0  0  4           0  0  0
    2.2690    1.1150    0.0000 C   0  0  0  0  0  4           0  0  0
    2.2653   -1.1171    0.0044 C   0  0  0  0  0  4           0  0  0
   -2.1342    0.0438    5.3886 C   0  0  0  0  0  4           0  0  0
   -1.5911    0.0286    4.0236 C   0  0  0  0  0  4           0  0  0
   -3.2008    0.8743    5.7976 C   0  0  0  0  0  4           0  0  0
   -0.5425    0.0000    1.3966 C   0  0  0  0  0  4           0  0  0
   -1.5571   -0.7866    6.3705 C   0  0  0  0  0  4           0  0  0
   -2.1116   -0.8395    3.0522 C   0  0  0  0  0  4           0  0  0
   -0.5409    0.8844    3.6602 C   0  0  0  0  0  4           0  0  0
   -3.6452    0.8923    7.1276 C   0  0  0  0  0  4           0  0  0
   -1.5950   -0.8519    1.7533 C   0  0  0  0  0  4           0  0  0
   -0.0240    0.8721    2.3617 C   0  0  0  0  0  4           0  0  0
   -2.0085   -0.7791    7.6938 C   0  0  0  0  0  4           0  0  0
   -3.0486    0.0626    8.0722 C   0  0  0  0  0  4           0  0  0
   -3.9232    1.7605    4.8694 C   0  0  0  0  0  4           0  0  0
    1.7788   -2.5157    0.0058 C   0  0  0  0  0  4           0  0  0
    1.1835   -4.2419   -1.4980 C   0  0  0  0  0  4           0  0  0
   -0.0000    0.0000    0.0000 C   0  0  0  0  0  4           0  0  0
    1.7865    2.5211   -0.0017 C   0  0  0  0  0  4           0  0  0
    2.5423    3.3936   -0.9988 C   0  0  0  0  0  4           0  0  0
    2.4340    2.9263   -2.4506 C   0  0  0  0  0  4           0  0  0
    3.1988    3.8184   -3.4171 C   0  0  0  0  0  4           0  0  0
  1  7  1  0     0  0
  2 22  2  0     0  0
  3 23  1  0     0  0
  3 24  1  0     0  0
  4 22  1  0     0  0
  5  8  1  0     0  0
  5  9  1  0     0  0
  5 25  1  0     0  0
  6  7  1  0     0  0
  6  8  2  0     0  0
  7  9  2  0     0  0
  8 26  1  0     0  0
  9 23  1  0     0  0
 10 11  1  0     0  0
 10 12  1  0     0  0
 10 14  2  0     0  0
 11 15  2  0     0  0
 11 16  1  0     0  0
 12 17  2  0     0  0
 12 22  1  0     0  0
 13 18  2  0     0  0
 13 19  1  0     0  0
 13 25  1  0     0  0
 14 20  1  0     0  0
 15 18  1  0     0  0
 16 19  2  0     0  0
 17 21  1  0     0  0
 20 21  2  0     0  0
 26 27  1  0     0  0
 27 28  1  0     0  0
 28 29  1  0     0  0
M  END
> <standard_type>
pIC50

> <# Confs.>
25

> <canonical_smiles>
ClC(N=C1CCCC)=C(COC)N1CC2=CC=C(C3=CC=CC=C3C(O)=O)C=C2

> <standard_relation>
=

> <Publication_ID>
nan

> <predicted_activity_value>
6.920818753952375

> <actual_activity_value>
7.00436480540245

> <Compound>
8

> <standard_units>
nM

> hash
1825488953729453991

$$$$
8_
XXILIB    08252103503D 0   0.00000     0.00000

 29 31  0     1  0            999 V2000
    5.0074    1.4914    0.0122 Cl  0  0  0  0  0  1           0  0  0
   -4.3523   -1.6406    3.8611 O   0  0  0  0  0  2           0  0  0
    1.6404    2.9003   -1.3667 O   0  0  0  0  0  2           0  0  0
   -3.6600   -3.1330    5.4390 O   0  0  0  0  0  2           0  0  0
    1.4523   -0.0000   -0.0000 N   0  0  0  0  0  3           0  0  0
    3.5393   -0.7630    0.0025 N   0  0  0  0  0  3           0  0  0
    3.5500    0.6068    0.0019 C   0  0  0  0  0  4           0  0  0
    2.2690   -1.1150    0.0000 C   0  0  0  0  0  4           0  0  0
    2.2653    1.1171   -0.0044 C   0  0  0  0  0  4           0  0  0
   -2.1395   -0.0382    5.3866 C   0  0  0  0  0  4           0  0  0
   -1.5933   -0.0262    4.0227 C   0  0  0  0  0  4           0  0  0
   -3.1915   -0.8843    5.8012 C   0  0  0  0  0  4           0  0  0
   -0.5425    0.0000    1.3966 C   0  0  0  0  0  4           0  0  0
   -1.6212    0.8553    6.3456 C   0  0  0  0  0  4           0  0  0
   -0.5245   -0.8631    3.6687 C   0  0  0  0  0  4           0  0  0
   -2.1307    0.8212    3.0426 C   0  0  0  0  0  4           0  0  0
   -3.7155   -0.8169    7.1003 C   0  0  0  0  0  4           0  0  0
   -0.0068   -0.8519    2.3702 C   0  0  0  0  0  4           0  0  0
   -1.6132    0.8328    1.7443 C   0  0  0  0  0  4           0  0  0
   -2.1340    0.9138    7.6451 C   0  0  0  0  0  4           0  0  0
   -3.1826    0.0812    8.0201 C   0  0  0  0  0  4           0  0  0
   -3.7990   -1.8937    4.9177 C   0  0  0  0  0  4           0  0  0
    1.7788    2.5157   -0.0058 C   0  0  0  0  0  4           0  0  0
    1.1753    4.2360   -1.5130 C   0  0  0  0  0  4           0  0  0
    0.0000   -0.0000    0.0000 C   0  0  0  0  0  4           0  0  0
    1.7865   -2.5211    0.0017 C   0  0  0  0  0  4           0  0  0
    2.5423   -3.3936    0.9988 C   0  0  0  0  0  4           0  0  0
    2.0795   -4.8504    1.0356 C   0  0  0  0  0  4           0  0  0
    2.8538   -5.6911    2.0399 C   0  0  0  0  0  4           0  0  0
  1  7  1  0     0  0
  2 22  2  0     0  0
  3 23  1  0     0  0
  3 24  1  0     0  0
  4 22  1  0     0  0
  5  8  1  0     0  0
  5  9  1  0     0  0
  5 25  1  0     0  0
  6  7  1  0     0  0
  6  8  2  0     0  0
  7  9  2  0     0  0
  8 26  1  0     0  0
  9 23  1  0     0  0
 10 11  1  0     0  0
 10 12  1  0     0  0
 10 14  2  0     0  0
 11 15  2  0     0  0
 11 16  1  0     0  0
 12 17  2  0     0  0
 12 22  1  0     0  0
 13 18  2  0     0  0
 13 19  1  0     0  0
 13 25  1  0     0  0
 14 20  1  0     0  0
 15 18  1  0     0  0
 16 19  2  0     0  0
 17 21  1  0     0  0
 20 21  2  0     0  0
 26 27  1  0     0  0
 27 28  1  0     0  0
 28 29  1  0     0  0
M  END
> <standard_type>
pIC50

> <# Confs.>
25

> <canonical_smiles>
ClC(N=C1CCCC)=C(COC)N1CC2=CC=C(C3=CC=CC=C3C(O)=O)C=C2

> <standard_relation>
=

> <Publication_ID>
nan

> <predicted_activity_value>
6.920818753952375

> <actual_activity_value>
7.00436480540245

> <Compound>
8

> <standard_units>
nM

> hash
1825488953729453991

$$$$
8_
XXILIB    08252103503D 0   0.00000     0.00000

 29 31  0     1  0            999 V2000
    5.0074    1.4914    0.0122 Cl  0  0  0  0  0  1           0  0  0
   -3.1897   -2.8184    4.4073 O   0  0  0  0  0  2           0  0  0
    1.6404    2.9003   -1.3667 O   0  0  0  0  0  2           0  0  0
   -5.1185   -1.6530    4.7509 O   0  0  0  0  0  2           0  0  0
    1.4523   -0.0000   -0.0000 N   0  0  0  0  0  3           0  0  0
    3.5393   -0.7630    0.0025 N   0  0  0  0  0  3           0  0  0
    3.5500    0.6068    0.0019 C   0  0  0  0  0  4           0  0  0
    2.2690   -1.1150    0.0000 C   0  0  0  0  0  4           0  0  0
    2.2653    1.1171   -0.0044 C   0  0  0  0  0  4           0  0  0
   -2.1395   -0.0382    5.3866 C   0  0  0  0  0  4           0  0  0
   -1.5933   -0.0262    4.0227 C   0  0  0  0  0  4           0  0  0
   -3.1915   -0.8843    5.8012 C   0  0  0  0  0  4           0  0  0
   -0.5425    0.0000    1.3966 C   0  0  0  0  0  4           0  0  0
   -1.6212    0.8553    6.3456 C   0  0  0  0  0  4           0  0  0
   -0.5245   -0.8631    3.6687 C   0  0  0  0  0  4           0  0  0
   -2.1307    0.8212    3.0426 C   0  0  0  0  0  4           0  0  0
   -3.7155   -0.8169    7.1003 C   0  0  0  0  0  4           0  0  0
   -0.0068   -0.8519    2.3702 C   0  0  0  0  0  4           0  0  0
   -1.6132    0.8328    1.7443 C   0  0  0  0  0  4           0  0  0
   -2.1340    0.9138    7.6451 C   0  0  0  0  0  4           0  0  0
   -3.1826    0.0812    8.0201 C   0  0  0  0  0  4           0  0  0
   -3.7990   -1.8937    4.9177 C   0  0  0  0  0  4           0  0  0
    1.7788    2.5157   -0.0058 C   0  0  0  0  0  4           0  0  0
    1.1753    4.2360   -1.5130 C   0  0  0  0  0  4           0  0  0
    0.0000   -0.0000    0.0000 C   0  0  0  0  0  4           0  0  0
    1.7865   -2.5211    0.0017 C   0  0  0  0  0  4           0  0  0
    2.5423   -3.3936    0.9988 C   0  0  0  0  0  4           0  0  0
    2.0795   -4.8504    1.0356 C   0  0  0  0  0  4           0  0  0
    2.8538   -5.6911    2.0399 C   0  0  0  0  0  4           0  0  0
  1  7  1  0     0  0
  2 22  2  0     0  0
  3 23  1  0     0  0
  3 24  1  0     0  0
  4 22  1  0     0  0
  5  8  1  0     0  0
  5  9  1  0     0  0
  5 25  1  0     0  0
  6  7  1  0     0  0
  6  8  2  0     0  0
  7  9  2  0     0  0
  8 26  1  0     0  0
  9 23  1  0     0  0
 10 11  1  0     0  0
 10 12  1  0     0  0
 10 14  2  0     0  0
 11 15  2  0     0  0
 11 16  1  0     0  0
 12 17  2  0     0  0
 12 22  1  0     0  0
 13 18  2  0     0  0
 13 19  1  0     0  0
 13 25  1  0     0  0
 14 20  1  0     0  0
 15 18  1  0     0  0
 16 19  2  0     0  0
 17 21  1  0     0  0
 20 21  2  0     0  0
 26 27  1  0     0  0
 27 28  1  0     0  0
 28 29  1  0     0  0
M  END
> <standard_type>
pIC50

> <# Confs.>
25

> <canonical_smiles>
ClC(N=C1CCCC)=C(COC)N1CC2=CC=C(C3=CC=CC=C3C(O)=O)C=C2

> <standard_relation>
=

> <Publication_ID>
nan

> <predicted_activity_value>
6.920818753952375

> <actual_activity_value>
7.00436480540245

> <Compound>
8

> <standard_units>
nM

> hash
1825488953729453991

$$$$
8_
XXILIB    08252103503D 0   0.00000     0.00000

 29 31  0     1  0            999 V2000
    5.0074    1.4914    0.0122 Cl  0  0  0  0  0  1           0  0  0
   -0.7206    2.7501    5.4450 O   0  0  0  0  0  2           0  0  0
    1.6404    2.9003   -1.3667 O   0  0  0  0  0  2           0  0  0
    0.4450    1.5680    7.0072 O   0  0  0  0  0  2           0  0  0
    1.4523   -0.0000   -0.0000 N   0  0  0  0  0  3           0  0  0
    3.5393   -0.7630    0.0025 N   0  0  0  0  0  3           0  0  0
    3.5500    0.6068    0.0019 C   0  0  0  0  0  4           0  0  0
    2.2690   -1.1150    0.0000 C   0  0  0  0  0  4           0  0  0
    2.2653    1.1171   -0.0044 C   0  0  0  0  0  4           0  0  0
   -2.1395   -0.0382    5.3866 C   0  0  0  0  0  4           0  0  0
   -1.5933   -0.0262    4.0227 C   0  0  0  0  0  4           0  0  0
   -1.6696    0.7952    6.4254 C   0  0  0  0  0  4           0  0  0
   -0.5425    0.0000    1.3966 C   0  0  0  0  0  4           0  0  0
   -3.1711   -0.9429    5.7091 C   0  0  0  0  0  4           0  0  0
   -0.5245   -0.8631    3.6687 C   0  0  0  0  0  4           0  0  0
   -2.1307    0.8212    3.0426 C   0  0  0  0  0  4           0  0  0
   -2.1867    0.7049    7.7259 C   0  0  0  0  0  4           0  0  0
   -0.0068   -0.8519    2.3702 C   0  0  0  0  0  4           0  0  0
   -1.6132    0.8328    1.7443 C   0  0  0  0  0  4           0  0  0
   -3.6966   -1.0242    7.0023 C   0  0  0  0  0  4           0  0  0
   -3.2017   -0.2038    8.0100 C   0  0  0  0  0  4           0  0  0
   -0.6264    1.8142    6.2208 C   0  0  0  0  0  4           0  0  0
    1.7788    2.5157   -0.0058 C   0  0  0  0  0  4           0  0  0
    1.1753    4.2360   -1.5130 C   0  0  0  0  0  4           0  0  0
    0.0000   -0.0000    0.0000 C   0  0  0  0  0  4           0  0  0
    1.7865   -2.5211    0.0017 C   0  0  0  0  0  4           0  0  0
    2.5400   -3.3953   -0.9956 C   0  0  0  0  0  4           0  0  0
    2.0772   -4.8522   -1.0289 C   0  0  0  0  0  4           0  0  0
    2.8491   -5.6945   -2.0335 C   0  0  0  0  0  4           0  0  0
  1  7  1  0     0  0
  2 22  2  0     0  0
  3 23  1  0     0  0
  3 24  1  0     0  0
  4 22  1  0     0  0
  5  8  1  0     0  0
  5  9  1  0     0  0
  5 25  1  0     0  0
  6  7  1  0     0  0
  6  8  2  0     0  0
  7  9  2  0     0  0
  8 26  1  0     0  0
  9 23  1  0     0  0
 10 11  1  0     0  0
 10 12  1  0     0  0
 10 14  2  0     0  0
 11 15  2  0     0  0
 11 16  1  0     0  0
 12 17  2  0     0  0
 12 22  1  0     0  0
 13 18  2  0     0  0
 13 19  1  0     0  0
 13 25  1  0     0  0
 14 20  1  0     0  0
 15 18  1  0     0  0
 16 19  2  0     0  0
 17 21  1  0     0  0
 20 21  2  0     0  0
 26 27  1  0     0  0
 27 28  1  0     0  0
 28 29  1  0     0  0
M  END
> <standard_type>
pIC50

> <# Confs.>
25

> <canonical_smiles>
ClC(N=C1CCCC)=C(COC)N1CC2=CC=C(C3=CC=CC=C3C(O)=O)C=C2

> <standard_relation>
=

> <Publication_ID>
nan

> <predicted_activity_value>
6.920818753952375

> <actual_activity_value>
7.00436480540245

> <Compound>
8

> <standard_units>
nM

> hash
1825488953729453991

$$$$
8_
XXILIB    08252103503D 0   0.00000     0.00000

 29 31  0     1  0            999 V2000
    5.0074   -1.4914   -0.0122 Cl  0  0  0  0  0  1           0  0  0
   -0.3420   -2.5128    5.5965 O   0  0  0  0  0  2           0  0  0
    1.6478   -2.9056   -1.3543 O   0  0  0  0  0  2           0  0  0
   -2.4418   -3.3554    5.8753 O   0  0  0  0  0  2           0  0  0
    1.4523    0.0000    0.0000 N   0  0  0  0  0  3           0  0  0
    3.5393    0.7630   -0.0025 N   0  0  0  0  0  3           0  0  0
    3.5500   -0.6068   -0.0019 C   0  0  0  0  0  4           0  0  0
    2.2690    1.1150    0.0000 C   0  0  0  0  0  4           0  0  0
    2.2653   -1.1171    0.0044 C   0  0  0  0  0  4           0  0  0
   -2.1342    0.0438    5.3886 C   0  0  0  0  0  4           0  0  0
   -1.5911    0.0286    4.0236 C   0  0  0  0  0  4           0  0  0
   -2.1342   -1.0800    6.2438 C   0  0  0  0  0  4           0  0  0
   -0.5425    0.0000    1.3966 C   0  0  0  0  0  4           0  0  0
   -2.7193    1.2260    5.8856 C   0  0  0  0  0  4           0  0  0
   -2.1116   -0.8395    3.0522 C   0  0  0  0  0  4           0  0  0
   -0.5409    0.8844    3.6602 C   0  0  0  0  0  4           0  0  0
   -2.7167   -1.0291    7.5185 C   0  0  0  0  0  4           0  0  0
   -1.5950   -0.8519    1.7533 C   0  0  0  0  0  4           0  0  0
   -0.0240    0.8721    2.3617 C   0  0  0  0  0  4           0  0  0
   -3.2883    1.2815    7.1615 C   0  0  0  0  0  4           0  0  0
   -3.2903    0.1538    7.9750 C   0  0  0  0  0  4           0  0  0
   -1.5209   -2.3660    5.8715 C   0  0  0  0  0  4           0  0  0
    1.7788   -2.5157    0.0058 C   0  0  0  0  0  4           0  0  0
    1.1835   -4.2419   -1.4980 C   0  0  0  0  0  4           0  0  0
   -0.0000    0.0000    0.0000 C   0  0  0  0  0  4           0  0  0
    1.7865    2.5211   -0.0017 C   0  0  0  0  0  4           0  0  0
    2.5423    3.3936   -0.9988 C   0  0  0  0  0  4           0  0  0
    2.4340    2.9263   -2.4506 C   0  0  0  0  0  4           0  0  0
    3.1988    3.8184   -3.4171 C   0  0  0  0  0  4           0  0  0
  1  7  1  0     0  0
  2 22  2  0     0  0
  3 23  1  0     0  0
  3 24  1  0     0  0
  4 22  1  0     0  0
  5  8  1  0     0  0
  5  9  1  0     0  0
  5 25  1  0     0  0
  6  7  1  0     0  0
  6  8  2  0     0  0
  7  9  2  0     0  0
  8 26  1  0     0  0
  9 23  1  0     0  0
 10 11  1  0     0  0
 10 12  1  0     0  0
 10 14  2  0     0  0
 11 15  2  0     0  0
 11 16  1  0     0  0
 12 17  2  0     0  0
 12 22  1  0     0  0
 13 18  2  0     0  0
 13 19  1  0     0  0
 13 25  1  0     0  0
 14 20  1  0     0  0
 15 18  1  0     0  0
 16 19  2  0     0  0
 17 21  1  0     0  0
 20 21  2  0     0  0
 26 27  1  0     0  0
 27 28  1  0     0  0
 28 29  1  0     0  0
M  END
> <standard_type>
pIC50

> <# Confs.>
25

> <canonical_smiles>
ClC(N=C1CCCC)=C(COC)N1CC2=CC=C(C3=CC=CC=C3C(O)=O)C=C2

> <standard_relation>
=

> <Publication_ID>
nan

> <predicted_activity_value>
6.920818753952375

> <actual_activity_value>
7.00436480540245

> <Compound>
8

> <standard_units>
nM

> hash
1825488953729453991

$$$$
8_
XXILIB    08252103503D 0   0.00000     0.00000

 29 31  0     1  0            999 V2000
    5.0074   -1.4914   -0.0122 Cl  0  0  0  0  0  1           0  0  0
   -3.4032    2.6589    4.2298 O   0  0  0  0  0  2           0  0  0
    1.6478   -2.9056   -1.3543 O   0  0  0  0  0  2           0  0  0
   -5.2361    1.4422    4.8267 O   0  0  0  0  0  2           0  0  0
    1.4523    0.0000    0.0000 N   0  0  0  0  0  3           0  0  0
    3.5393    0.7630   -0.0025 N   0  0  0  0  0  3           0  0  0
    3.5500   -0.6068   -0.0019 C   0  0  0  0  0  4           0  0  0
    2.2690    1.1150    0.0000 C   0  0  0  0  0  4           0  0  0
    2.2653   -1.1171    0.0044 C   0  0  0  0  0  4           0  0  0
   -2.1342    0.0438    5.3886 C   0  0  0  0  0  4           0  0  0
   -1.5911    0.0286    4.0236 C   0  0  0  0  0  4           0  0  0
   -3.2008    0.8743    5.7976 C   0  0  0  0  0  4           0  0  0
   -0.5425    0.0000    1.3966 C   0  0  0  0  0  4           0  0  0
   -1.5571   -0.7866    6.3705 C   0  0  0  0  0  4           0  0  0
   -2.1116   -0.8395    3.0522 C   0  0  0  0  0  4           0  0  0
   -0.5409    0.8844    3.6602 C   0  0  0  0  0  4           0  0  0
   -3.6452    0.8923    7.1276 C   0  0  0  0  0  4           0  0  0
   -1.5950   -0.8519    1.7533 C   0  0  0  0  0  4           0  0  0
   -0.0240    0.8721    2.3617 C   0  0  0  0  0  4           0  0  0
   -2.0085   -0.7791    7.6938 C   0  0  0  0  0  4           0  0  0
   -3.0486    0.0626    8.0722 C   0  0  0  0  0  4           0  0  0
   -3.9232    1.7605    4.8694 C   0  0  0  0  0  4           0  0  0
    1.7788   -2.5157    0.0058 C   0  0  0  0  0  4           0  0  0
    1.1835   -4.2419   -1.4980 C   0  0  0  0  0  4           0  0  0
   -0.0000    0.0000    0.0000 C   0  0  0  0  0  4           0  0  0
    1.7865    2.5211   -0.0017 C   0  0  0  0  0  4           0  0  0
    2.5423    3.3936   -0.9988 C   0  0  0  0  0  4           0  0  0
    2.0795    4.8504   -1.0356 C   0  0  0  0  0  4           0  0  0
    2.8538    5.6911   -2.0399 C   0  0  0  0  0  4           0  0  0
  1  7  1  0     0  0
  2 22  2  0     0  0
  3 23  1  0     0  0
  3 24  1  0     0  0
  4 22  1  0     0  0
  5  8  1  0     0  0
  5  9  1  0     0  0
  5 25  1  0     0  0
  6  7  1  0     0  0
  6  8  2  0     0  0
  7  9  2  0     0  0
  8 26  1  0     0  0
  9 23  1  0     0  0
 10 11  1  0     0  0
 10 12  1  0     0  0
 10 14  2  0     0  0
 11 15  2  0     0  0
 11 16  1  0     0  0
 12 17  2  0     0  0
 12 22  1  0     0  0
 13 18  2  0     0  0
 13 19  1  0     0  0
 13 25  1  0     0  0
 14 20  1  0     0  0
 15 18  1  0     0  0
 16 19  2  0     0  0
 17 21  1  0     0  0
 20 21  2  0     0  0
 26 27  1  0     0  0
 27 28  1  0     0  0
 28 29  1  0     0  0
M  END
> <standard_type>
pIC50

> <# Confs.>
25

> <canonical_smiles>
ClC(N=C1CCCC)=C(COC)N1CC2=CC=C(C3=CC=CC=C3C(O)=O)C=C2

> <standard_relation>
=

> <Publication_ID>
nan

> <predicted_activity_value>
6.920818753952375

> <actual_activity_value>
7.00436480540245

> <Compound>
8

> <standard_units>
nM

> hash
1825488953729453991

$$$$
8_
XXILIB    08252103503D 0   0.00000     0.00000

 29 31  0     1  0            999 V2000
    5.0074   -1.4914   -0.0122 Cl  0  0  0  0  0  1           0  0  0
   -3.1897   -2.8184    4.4073 O   0  0  0  0  0  2           0  0  0
    1.6478   -2.9056   -1.3543 O   0  0  0  0  0  2           0  0  0
   -5.1185   -1.6530    4.7509 O   0  0  0  0  0  2           0  0  0
    1.4523    0.0000    0.0000 N   0  0  0  0  0  3           0  0  0
    3.5393    0.7630   -0.0025 N   0  0  0  0  0  3           0  0  0
    3.5500   -0.6068   -0.0019 C   0  0  0  0  0  4           0  0  0
    2.2690    1.1150    0.0000 C   0  0  0  0  0  4           0  0  0
    2.2653   -1.1171    0.0044 C   0  0  0  0  0  4           0  0  0
   -2.1395   -0.0382    5.3866 C   0  0  0  0  0  4           0  0  0
   -1.5933   -0.0262    4.0227 C   0  0  0  0  0  4           0  0  0
   -3.1915   -0.8843    5.8012 C   0  0  0  0  0  4           0  0  0
   -0.5425    0.0000    1.3966 C   0  0  0  0  0  4           0  0  0
   -1.6212    0.8553    6.3456 C   0  0  0  0  0  4           0  0  0
   -0.5245   -0.8631    3.6687 C   0  0  0  0  0  4           0  0  0
   -2.1307    0.8212    3.0426 C   0  0  0  0  0  4           0  0  0
   -3.7155   -0.8169    7.1003 C   0  0  0  0  0  4           0  0  0
   -0.0068   -0.8519    2.3702 C   0  0  0  0  0  4           0  0  0
   -1.6132    0.8328    1.7443 C   0  0  0  0  0  4           0  0  0
   -2.1340    0.9138    7.6451 C   0  0  0  0  0  4           0  0  0
   -3.1826    0.0812    8.0201 C   0  0  0  0  0  4           0  0  0
   -3.7990   -1.8937    4.9177 C   0  0  0  0  0  4           0  0  0
    1.7788   -2.5157    0.0058 C   0  0  0  0  0  4           0  0  0
    1.1835   -4.2419   -1.4980 C   0  0  0  0  0  4           0  0  0
    0.0000   -0.0000    0.0000 C   0  0  0  0  0  4           0  0  0
    1.7865    2.5211   -0.0017 C   0  0  0  0  0  4           0  0  0
    1.5995    3.0696   -1.4127 C   0  0  0  0  0  4           0  0  0
    1.1036    4.5150   -1.4641 C   0  0  0  0  0  4           0  0  0
    0.9283    5.0294   -2.8851 C   0  0  0  0  0  4           0  0  0
  1  7  1  0     0  0
  2 22  2  0     0  0
  3 23  1  0     0  0
  3 24  1  0     0  0
  4 22  1  0     0  0
  5  8  1  0     0  0
  5  9  1  0     0  0
  5 25  1  0     0  0
  6  7  1  0     0  0
  6  8  2  0     0  0
  7  9  2  0     0  0
  8 26  1  0     0  0
  9 23  1  0     0  0
 10 11  1  0     0  0
 10 12  1  0     0  0
 10 14  2  0     0  0
 11 15  2  0     0  0
 11 16  1  0     0  0
 12 17  2  0     0  0
 12 22  1  0     0  0
 13 18  2  0     0  0
 13 19  1  0     0  0
 13 25  1  0     0  0
 14 20  1  0     0  0
 15 18  1  0     0  0
 16 19  2  0     0  0
 17 21  1  0     0  0
 20 21  2  0     0  0
 26 27  1  0     0  0
 27 28  1  0     0  0
 28 29  1  0     0  0
M  END
> <standard_type>
pIC50

> <# Confs.>
25

> <canonical_smiles>
ClC(N=C1CCCC)=C(COC)N1CC2=CC=C(C3=CC=CC=C3C(O)=O)C=C2

> <standard_relation>
=

> <Publication_ID>
nan

> <predicted_activity_value>
6.920818753952375

> <actual_activity_value>
7.00436480540245

> <Compound>
8

> <standard_units>
nM

> hash
1825488953729453991

$$$$
8_
XXILIB    08252103503D 0   0.00000     0.00000

 29 31  0     1  0            999 V2000
    5.0074   -1.4914   -0.0122 Cl  0  0  0  0  0  1           0  0  0
   -0.3420   -2.5128    5.5965 O   0  0  0  0  0  2           0  0  0
    1.6478   -2.9056   -1.3543 O   0  0  0  0  0  2           0  0  0
   -2.4418   -3.3554    5.8753 O   0  0  0  0  0  2           0  0  0
    1.4523    0.0000    0.0000 N   0  0  0  0  0  3           0  0  0
    3.5393    0.7630   -0.0025 N   0  0  0  0  0  3           0  0  0
    3.5500   -0.6068   -0.0019 C   0  0  0  0  0  4           0  0  0
    2.2690    1.1150    0.0000 C   0  0  0  0  0  4           0  0  0
    2.2653   -1.1171    0.0044 C   0  0  0  0  0  4           0  0  0
   -2.1342    0.0438    5.3886 C   0  0  0  0  0  4           0  0  0
   -1.5911    0.0286    4.0236 C   0  0  0  0  0  4           0  0  0
   -2.1342   -1.0800    6.2438 C   0  0  0  0  0  4           0  0  0
   -0.5425    0.0000    1.3966 C   0  0  0  0  0  4           0  0  0
   -2.7193    1.2260    5.8856 C   0  0  0  0  0  4           0  0  0
   -2.1116   -0.8395    3.0522 C   0  0  0  0  0  4           0  0  0
   -0.5409    0.8844    3.6602 C   0  0  0  0  0  4           0  0  0
   -2.7167   -1.0291    7.5185 C   0  0  0  0  0  4           0  0  0
   -1.5950   -0.8519    1.7533 C   0  0  0  0  0  4           0  0  0
   -0.0240    0.8721    2.3617 C   0  0  0  0  0  4           0  0  0
   -3.2883    1.2815    7.1615 C   0  0  0  0  0  4           0  0  0
   -3.2903    0.1538    7.9750 C   0  0  0  0  0  4           0  0  0
   -1.5209   -2.3660    5.8715 C   0  0  0  0  0  4           0  0  0
    1.7788   -2.5157    0.0058 C   0  0  0  0  0  4           0  0  0
    1.1835   -4.2419   -1.4980 C   0  0  0  0  0  4           0  0  0
   -0.0000    0.0000    0.0000 C   0  0  0  0  0  4           0  0  0
    1.7865    2.5211   -0.0017 C   0  0  0  0  0  4           0  0  0
    2.5423    3.3936   -0.9988 C   0  0  0  0  0  4           0  0  0
    2.0795    4.8504   -1.0356 C   0  0  0  0  0  4           0  0  0
    2.8538    5.6911   -2.0399 C   0  0  0  0  0  4           0  0  0
  1  7  1  0     0  0
  2 22  2  0     0  0
  3 23  1  0     0  0
  3 24  1  0     0  0
  4 22  1  0     0  0
  5  8  1  0     0  0
  5  9  1  0     0  0
  5 25  1  0     0  0
  6  7  1  0     0  0
  6  8  2  0     0  0
  7  9  2  0     0  0
  8 26  1  0     0  0
  9 23  1  0     0  0
 10 11  1  0     0  0
 10 12  1  0     0  0
 10 14  2  0     0  0
 11 15  2  0     0  0
 11 16  1  0     0  0
 12 17  2  0     0  0
 12 22  1  0     0  0
 13 18  2  0     0  0
 13 19  1  0     0  0
 13 25  1  0     0  0
 14 20  1  0     0  0
 15 18  1  0     0  0
 16 19  2  0     0  0
 17 21  1  0     0  0
 20 21  2  0     0  0
 26 27  1  0     0  0
 27 28  1  0     0  0
 28 29  1  0     0  0
M  END
> <standard_type>
pIC50

> <# Confs.>
25

> <canonical_smiles>
ClC(N=C1CCCC)=C(COC)N1CC2=CC=C(C3=CC=CC=C3C(O)=O)C=C2

> <standard_relation>
=

> <Publication_ID>
nan

> <predicted_activity_value>
6.920818753952375

> <actual_activity_value>
7.00436480540245

> <Compound>
8

> <standard_units>
nM

> hash
1825488953729453991

$$$$
8_
XXILIB    08252103503D 0   0.00000     0.00000

 29 31  0     1  0            999 V2000
    5.0074    1.4914    0.0122 Cl  0  0  0  0  0  1           0  0  0
   -2.1079   -3.2694    5.3005 O   0  0  0  0  0  2           0  0  0
    1.6404    2.9003   -1.3667 O   0  0  0  0  0  2           0  0  0
   -0.2239   -2.4060    6.2501 O   0  0  0  0  0  2           0  0  0
    1.4523   -0.0000   -0.0000 N   0  0  0  0  0  3           0  0  0
    3.5393   -0.7630    0.0025 N   0  0  0  0  0  3           0  0  0
    3.5500    0.6068    0.0019 C   0  0  0  0  0  4           0  0  0
    2.2690   -1.1150    0.0000 C   0  0  0  0  0  4           0  0  0
    2.2653    1.1171   -0.0044 C   0  0  0  0  0  4           0  0  0
   -2.1342    0.0438    5.3886 C   0  0  0  0  0  4           0  0  0
   -1.5911    0.0286    4.0236 C   0  0  0  0  0  4           0  0  0
   -2.1342   -1.0800    6.2438 C   0  0  0  0  0  4           0  0  0
   -0.5425    0.0000    1.3966 C   0  0  0  0  0  4           0  0  0
   -2.7193    1.2260    5.8856 C   0  0  0  0  0  4           0  0  0
   -2.1116   -0.8395    3.0522 C   0  0  0  0  0  4           0  0  0
   -0.5409    0.8844    3.6602 C   0  0  0  0  0  4           0  0  0
   -2.7167   -1.0291    7.5185 C   0  0  0  0  0  4           0  0  0
   -1.5950   -0.8519    1.7533 C   0  0  0  0  0  4           0  0  0
   -0.0240    0.8721    2.3617 C   0  0  0  0  0  4           0  0  0
   -3.2883    1.2815    7.1615 C   0  0  0  0  0  4           0  0  0
   -3.2903    0.1538    7.9750 C   0  0  0  0  0  4           0  0  0
   -1.5209   -2.3660    5.8715 C   0  0  0  0  0  4           0  0  0
    1.7788    2.5157   -0.0058 C   0  0  0  0  0  4           0  0  0
    1.1753    4.2360   -1.5130 C   0  0  0  0  0  4           0  0  0
   -0.0000    0.0000    0.0000 C   0  0  0  0  0  4           0  0  0
    1.7865   -2.5211    0.0017 C   0  0  0  0  0  4           0  0  0
    1.5995   -3.0696    1.4127 C   0  0  0  0  0  4           0  0  0
    1.1036   -4.5150    1.4641 C   0  0  0  0  0  4           0  0  0
    0.9283   -5.0294    2.8851 C   0  0  0  0  0  4           0  0  0
  1  7  1  0     0  0
  2 22  2  0     0  0
  3 23  1  0     0  0
  3 24  1  0     0  0
  4 22  1  0     0  0
  5  8  1  0     0  0
  5  9  1  0     0  0
  5 25  1  0     0  0
  6  7  1  0     0  0
  6  8  2  0     0  0
  7  9  2  0     0  0
  8 26  1  0     0  0
  9 23  1  0     0  0
 10 11  1  0     0  0
 10 12  1  0     0  0
 10 14  2  0     0  0
 11 15  2  0     0  0
 11 16  1  0     0  0
 12 17  2  0     0  0
 12 22  1  0     0  0
 13 18  2  0     0  0
 13 19  1  0     0  0
 13 25  1  0     0  0
 14 20  1  0     0  0
 15 18  1  0     0  0
 16 19  2  0     0  0
 17 21  1  0     0  0
 20 21  2  0     0  0
 26 27  1  0     0  0
 27 28  1  0     0  0
 28 29  1  0     0  0
M  END
> <standard_type>
pIC50

> <# Confs.>
25

> <canonical_smiles>
ClC(N=C1CCCC)=C(COC)N1CC2=CC=C(C3=CC=CC=C3C(O)=O)C=C2

> <standard_relation>
=

> <Publication_ID>
nan

> <predicted_activity_value>
6.920818753952375

> <actual_activity_value>
7.00436480540245

> <Compound>
8

> <standard_units>
nM

> hash
1825488953729453991

$$$$
8_
XXILIB    08252103503D 0   0.00000     0.00000

 29 31  0     1  0            999 V2000
    5.0074    1.4914    0.0122 Cl  0  0  0  0  0  1           0  0  0
   -4.3523   -1.6406    3.8611 O   0  0  0  0  0  2           0  0  0
    1.6404    2.9003   -1.3667 O   0  0  0  0  0  2           0  0  0
   -3.6600   -3.1330    5.4390 O   0  0  0  0  0  2           0  0  0
    1.4523   -0.0000   -0.0000 N   0  0  0  0  0  3           0  0  0
    3.5393   -0.7630    0.0025 N   0  0  0  0  0  3           0  0  0
    3.5500    0.6068    0.0019 C   0  0  0  0  0  4           0  0  0
    2.2690   -1.1150    0.0000 C   0  0  0  0  0  4           0  0  0
    2.2653    1.1171   -0.0044 C   0  0  0  0  0  4           0  0  0
   -2.1395   -0.0382    5.3866 C   0  0  0  0  0  4           0  0  0
   -1.5933   -0.0262    4.0227 C   0  0  0  0  0  4           0  0  0
   -3.1915   -0.8843    5.8012 C   0  0  0  0  0  4           0  0  0
   -0.5425    0.0000    1.3966 C   0  0  0  0  0  4           0  0  0
   -1.6212    0.8553    6.3456 C   0  0  0  0  0  4           0  0  0
   -0.5245   -0.8631    3.6687 C   0  0  0  0  0  4           0  0  0
   -2.1307    0.8212    3.0426 C   0  0  0  0  0  4           0  0  0
   -3.7155   -0.8169    7.1003 C   0  0  0  0  0  4           0  0  0
   -0.0068   -0.8519    2.3702 C   0  0  0  0  0  4           0  0  0
   -1.6132    0.8328    1.7443 C   0  0  0  0  0  4           0  0  0
   -2.1340    0.9138    7.6451 C   0  0  0  0  0  4           0  0  0
   -3.1826    0.0812    8.0201 C   0  0  0  0  0  4           0  0  0
   -3.7990   -1.8937    4.9177 C   0  0  0  0  0  4           0  0  0
    1.7788    2.5157   -0.0058 C   0  0  0  0  0  4           0  0  0
    1.1753    4.2360   -1.5130 C   0  0  0  0  0  4           0  0  0
    0.0000   -0.0000    0.0000 C   0  0  0  0  0  4           0  0  0
    1.7865   -2.5211    0.0017 C   0  0  0  0  0  4           0  0  0
    2.5400   -3.3953   -0.9956 C   0  0  0  0  0  4           0  0  0
    2.4284   -2.9304   -2.4480 C   0  0  0  0  0  4           0  0  0
    3.1910   -3.8241   -3.4146 C   0  0  0  0  0  4           0  0  0
  1  7  1  0     0  0
  2 22  2  0     0  0
  3 23  1  0     0  0
  3 24  1  0     0  0
  4 22  1  0     0  0
  5  8  1  0     0  0
  5  9  1  0     0  0
  5 25  1  0     0  0
  6  7  1  0     0  0
  6  8  2  0     0  0
  7  9  2  0     0  0
  8 26  1  0     0  0
  9 23  1  0     0  0
 10 11  1  0     0  0
 10 12  1  0     0  0
 10 14  2  0     0  0
 11 15  2  0     0  0
 11 16  1  0     0  0
 12 17  2  0     0  0
 12 22  1  0     0  0
 13 18  2  0     0  0
 13 19  1  0     0  0
 13 25  1  0     0  0
 14 20  1  0     0  0
 15 18  1  0     0  0
 16 19  2  0     0  0
 17 21  1  0     0  0
 20 21  2  0     0  0
 26 27  1  0     0  0
 27 28  1  0     0  0
 28 29  1  0     0  0
M  END
> <standard_type>
pIC50

> <# Confs.>
25

> <canonical_smiles>
ClC(N=C1CCCC)=C(COC)N1CC2=CC=C(C3=CC=CC=C3C(O)=O)C=C2

> <standard_relation>
=

> <Publication_ID>
nan

> <predicted_activity_value>
6.920818753952375

> <actual_activity_value>
7.00436480540245

> <Compound>
8

> <standard_units>
nM

> hash
1825488953729453991

$$$$
8_
XXILIB    08252103503D 0   0.00000     0.00000

 29 31  0     1  0            999 V2000
    5.0074    1.4914    0.0122 Cl  0  0  0  0  0  1           0  0  0
   -3.1897   -2.8184    4.4073 O   0  0  0  0  0  2           0  0  0
    1.6404    2.9003   -1.3667 O   0  0  0  0  0  2           0  0  0
   -5.1185   -1.6530    4.7509 O   0  0  0  0  0  2           0  0  0
    1.4523   -0.0000   -0.0000 N   0  0  0  0  0  3           0  0  0
    3.5393   -0.7630    0.0025 N   0  0  0  0  0  3           0  0  0
    3.5500    0.6068    0.0019 C   0  0  0  0  0  4           0  0  0
    2.2690   -1.1150    0.0000 C   0  0  0  0  0  4           0  0  0
    2.2653    1.1171   -0.0044 C   0  0  0  0  0  4           0  0  0
   -2.1395   -0.0382    5.3866 C   0  0  0  0  0  4           0  0  0
   -1.5933   -0.0262    4.0227 C   0  0  0  0  0  4           0  0  0
   -3.1915   -0.8843    5.8012 C   0  0  0  0  0  4           0  0  0
   -0.5425    0.0000    1.3966 C   0  0  0  0  0  4           0  0  0
   -1.6212    0.8553    6.3456 C   0  0  0  0  0  4           0  0  0
   -0.5245   -0.8631    3.6687 C   0  0  0  0  0  4           0  0  0
   -2.1307    0.8212    3.0426 C   0  0  0  0  0  4           0  0  0
   -3.7155   -0.8169    7.1003 C   0  0  0  0  0  4           0  0  0
   -0.0068   -0.8519    2.3702 C   0  0  0  0  0  4           0  0  0
   -1.6132    0.8328    1.7443 C   0  0  0  0  0  4           0  0  0
   -2.1340    0.9138    7.6451 C   0  0  0  0  0  4           0  0  0
   -3.1826    0.0812    8.0201 C   0  0  0  0  0  4           0  0  0
   -3.7990   -1.8937    4.9177 C   0  0  0  0  0  4           0  0  0
    1.7788    2.5157   -0.0058 C   0  0  0  0  0  4           0  0  0
    1.1753    4.2360   -1.5130 C   0  0  0  0  0  4           0  0  0
    0.0000   -0.0000    0.0000 C   0  0  0  0  0  4           0  0  0
    1.7865   -2.5211    0.0017 C   0  0  0  0  0  4           0  0  0
    2.5400   -3.3953   -0.9956 C   0  0  0  0  0  4           0  0  0
    2.4284   -2.9304   -2.4480 C   0  0  0  0  0  4           0  0  0
    3.1910   -3.8241   -3.4146 C   0  0  0  0  0  4           0  0  0
  1  7  1  0     0  0
  2 22  2  0     0  0
  3 23  1  0     0  0
  3 24  1  0     0  0
  4 22  1  0     0  0
  5  8  1  0     0  0
  5  9  1  0     0  0
  5 25  1  0     0  0
  6  7  1  0     0  0
  6  8  2  0     0  0
  7  9  2  0     0  0
  8 26  1  0     0  0
  9 23  1  0     0  0
 10 11  1  0     0  0
 10 12  1  0     0  0
 10 14  2  0     0  0
 11 15  2  0     0  0
 11 16  1  0     0  0
 12 17  2  0     0  0
 12 22  1  0     0  0
 13 18  2  0     0  0
 13 19  1  0     0  0
 13 25  1  0     0  0
 14 20  1  0     0  0
 15 18  1  0     0  0
 16 19  2  0     0  0
 17 21  1  0     0  0
 20 21  2  0     0  0
 26 27  1  0     0  0
 27 28  1  0     0  0
 28 29  1  0     0  0
M  END
> <standard_type>
pIC50

> <# Confs.>
25

> <canonical_smiles>
ClC(N=C1CCCC)=C(COC)N1CC2=CC=C(C3=CC=CC=C3C(O)=O)C=C2

> <standard_relation>
=

> <Publication_ID>
nan

> <predicted_activity_value>
6.920818753952375

> <actual_activity_value>
7.00436480540245

> <Compound>
8

> <standard_units>
nM

> hash
1825488953729453991

$$$$
8_
XXILIB    08252103503D 0   0.00000     0.00000

 29 31  0     1  0            999 V2000
    5.0074   -1.4914   -0.0122 Cl  0  0  0  0  0  1           0  0  0
    0.9197    0.8711    5.9123 O   0  0  0  0  0  2           0  0  0
    0.7380   -2.5888   -0.9589 O   0  0  0  0  0  2           0  0  0
   -0.2610    2.6193    6.7762 O   0  0  0  0  0  2           0  0  0
    1.4523   -0.0000   -0.0000 N   0  0  0  0  0  3           0  0  0
    3.5393    0.7630   -0.0025 N   0  0  0  0  0  3           0  0  0
    3.5500   -0.6068   -0.0019 C   0  0  0  0  0  4           0  0  0
    2.2690    1.1150    0.0000 C   0  0  0  0  0  4           0  0  0
    2.2653   -1.1171    0.0044 C   0  0  0  0  0  4           0  0  0
   -2.0446   -0.0040    5.4234 C   0  0  0  0  0  4           0  0  0
   -1.5306   -0.0017    4.0471 C   0  0  0  0  0  4           0  0  0
   -1.3710    0.5931    6.5117 C   0  0  0  0  0  4           0  0  0
   -0.5425    0.0000    1.3966 C   0  0  0  0  0  4           0  0  0
   -3.2617   -0.6569    5.7047 C   0  0  0  0  0  4           0  0  0
   -1.2915    1.2039    3.3707 C   0  0  0  0  0  4           0  0  0
   -1.2647   -1.2060    3.3790 C   0  0  0  0  0  4           0  0  0
   -1.8768    0.5138    7.8173 C   0  0  0  0  0  4           0  0  0
   -0.8009    1.2048    2.0617 C   0  0  0  0  0  4           0  0  0
   -0.7743   -1.2055    2.0702 C   0  0  0  0  0  4           0  0  0
   -3.7735   -0.7247    7.0041 C   0  0  0  0  0  4           0  0  0
   -3.0793   -0.1434    8.0593 C   0  0  0  0  0  4           0  0  0
   -0.1130    1.3428    6.3571 C   0  0  0  0  0  4           0  0  0
    1.7788   -2.5157    0.0058 C   0  0  0  0  0  4           0  0  0
    0.1768   -3.8913   -1.0604 C   0  0  0  0  0  4           0  0  0
    0.0000    0.0000    0.0000 C   0  0  0  0  0  4           0  0  0
    1.7865    2.5211   -0.0017 C   0  0  0  0  0  4           0  0  0
    2.5423    3.3936   -0.9988 C   0  0  0  0  0  4           0  0  0
    2.0795    4.8504   -1.0356 C   0  0  0  0  0  4           0  0  0
    2.8538    5.6911   -2.0399 C   0  0  0  0  0  4           0  0  0
  1  7  1  0     0  0
  2 22  2  0     0  0
  3 23  1  0     0  0
  3 24  1  0     0  0
  4 22  1  0     0  0
  5  8  1  0     0  0
  5  9  1  0     0  0
  5 25  1  0     0  0
  6  7  1  0     0  0
  6  8  2  0     0  0
  7  9  2  0     0  0
  8 26  1  0     0  0
  9 23  1  0     0  0
 10 11  1  0     0  0
 10 12  1  0     0  0
 10 14  2  0     0  0
 11 15  2  0     0  0
 11 16  1  0     0  0
 12 17  2  0     0  0
 12 22  1  0     0  0
 13 18  2  0     0  0
 13 19  1  0     0  0
 13 25  1  0     0  0
 14 20  1  0     0  0
 15 18  1  0     0  0
 16 19  2  0     0  0
 17 21  1  0     0  0
 20 21  2  0     0  0
 26 27  1  0     0  0
 27 28  1  0     0  0
 28 29  1  0     0  0
M  END
> <standard_type>
pIC50

> <# Confs.>
25

> <canonical_smiles>
ClC(N=C1CCCC)=C(COC)N1CC2=CC=C(C3=CC=CC=C3C(O)=O)C=C2

> <standard_relation>
=

> <Publication_ID>
nan

> <predicted_activity_value>
6.920818753952375

> <actual_activity_value>
7.00436480540245

> <Compound>
8

> <standard_units>
nM

> hash
1825488953729453991

$$$$
24_
XXILIB    08252103513D 0   0.00000     0.00000

 22 23  0     1  0            999 V2000
   -3.5606    0.0112   -1.4761 Cl  0  0  0  0  0  1           0  0  0
    4.5849    5.6880   -0.5509 O   0  0  0  0  0  2           0  0  0
    2.6493    6.1585    0.5910 O   0  0  0  0  0  2           0  0  0
   -0.2009   -1.3853   -2.8936 O   0  0  0  0  0  2           0  0  0
    0.0000    0.0000    0.0000 N   0  0  0  0  0  3           0  0  0
   -2.0832    0.0069    0.7729 N   0  0  0  0  0  3           0  0  0
   -2.0995    0.0012   -0.5972 C   0  0  0  0  0  4           0  0  0
   -0.8115    0.0000    1.1181 C   0  0  0  0  0  4           0  0  0
   -0.8170   -0.0114   -1.1136 C   0  0  0  0  0  4           0  0  0
    3.0012    3.9964   -0.0241 C   0  0  0  0  0  4           0  0  0
    1.9920    1.3968    0.0000 C   0  0  0  0  0  4           0  0  0
    3.8867    2.9203   -0.0118 C   0  0  0  0  0  4           0  0  0
    1.6214    3.7992   -0.0391 C   0  0  0  0  0  4           0  0  0
    3.3778    1.6214   -0.0000 C   0  0  0  0  0  4           0  0  0
    1.1207    2.4973   -0.0269 C   0  0  0  0  0  4           0  0  0
    3.5293    5.3565   -0.0447 C   0  0  0  0  0  4           0  0  0
   -0.3376   -0.0246   -2.5112 C   0  0  0  0  0  4           0  0  0
    1.4499   -0.0000    0.0000 C   0  0  0  0  0  4           0  0  0
   -0.3158    0.0019    2.5213 C   0  0  0  0  0  4           0  0  0
   -0.1206   -1.4082    3.0704 C   0  0  0  0  0  4           0  0  0
    0.3875   -1.3773    4.5087 C   0  0  0  0  0  4           0  0  0
    0.5836   -2.7806    5.0601 C   0  0  0  0  0  4           0  0  0
  1  7  1  0     0  0
  2 16  2  0     0  0
  3 16  1  0     0  0
  4 17  1  0     0  0
  5  8  1  0     0  0
  5  9  1  0     0  0
  5 18  1  0     0  0
  6  7  1  0     0  0
  6  8  2  0     0  0
  7  9  2  0     0  0
  8 19  1  0     0  0
  9 17  1  0     0  0
 10 12  2  0     0  0
 10 13  1  0     0  0
 10 16  1  0     0  0
 11 14  2  0     0  0
 11 15  1  0     0  0
 11 18  1  0     0  0
 12 14  1  0     0  0
 13 15  2  0     0  0
 19 20  1  0     0  0
 20 21  1  0     0  0
 21 22  1  0     0  0
M  END
> <standard_type>
pIC50

> <# Confs.>
25

> <canonical_smiles>
CCCCC1=NC(Cl)=C(CO)N1CC2=CC=C(C(O)=O)C=C2

> <standard_relation>
=

> <Publication_ID>
nan

> <predicted_activity_value>
5.0

> <actual_activity_value>
4.0

> <Compound>
24

> <standard_units>
nM

> hash
15330608199569978610

$$$$
24_
XXILIB    08252103513D 0   0.00000     0.00000

 22 23  0     1  0            999 V2000
   -3.5606    0.0112   -1.4761 Cl  0  0  0  0  0  1           0  0  0
    4.5849   -5.6880    0.5509 O   0  0  0  0  0  2           0  0  0
    2.6493   -6.1585   -0.5910 O   0  0  0  0  0  2           0  0  0
   -0.2030    1.3286   -2.9199 O   0  0  0  0  0  2           0  0  0
   -0.0000    0.0000    0.0000 N   0  0  0  0  0  3           0  0  0
   -2.0832    0.0069    0.7729 N   0  0  0  0  0  3           0  0  0
   -2.0995    0.0012   -0.5972 C   0  0  0  0  0  4           0  0  0
   -0.8115    0.0000    1.1181 C   0  0  0  0  0  4           0  0  0
   -0.8170   -0.0114   -1.1136 C   0  0  0  0  0  4           0  0  0
    3.0012   -3.9964    0.0241 C   0  0  0  0  0  4           0  0  0
    1.9920   -1.3968    0.0000 C   0  0  0  0  0  4           0  0  0
    3.8867   -2.9203    0.0118 C   0  0  0  0  0  4           0  0  0
    1.6214   -3.7992    0.0391 C   0  0  0  0  0  4           0  0  0
    3.3778   -1.6214    0.0000 C   0  0  0  0  0  4           0  0  0
    1.1207   -2.4973    0.0269 C   0  0  0  0  0  4           0  0  0
    3.5293   -5.3565    0.0447 C   0  0  0  0  0  4           0  0  0
   -0.3376   -0.0246   -2.5112 C   0  0  0  0  0  4           0  0  0
    1.4499    0.0000   -0.0000 C   0  0  0  0  0  4           0  0  0
   -0.3158    0.0019    2.5213 C   0  0  0  0  0  4           0  0  0
   -0.1240    1.4134    3.0679 C   0  0  0  0  0  4           0  0  0
    0.3841    1.3863    4.5062 C   0  0  0  0  0  4           0  0  0
    0.5767    2.7910    5.0552 C   0  0  0  0  0  4           0  0  0
  1  7  1  0     0  0
  2 16  2  0     0  0
  3 16  1  0     0  0
  4 17  1  0     0  0
  5  8  1  0     0  0
  5  9  1  0     0  0
  5 18  1  0     0  0
  6  7  1  0     0  0
  6  8  2  0     0  0
  7  9  2  0     0  0
  8 19  1  0     0  0
  9 17  1  0     0  0
 10 12  2  0     0  0
 10 13  1  0     0  0
 10 16  1  0     0  0
 11 14  2  0     0  0
 11 15  1  0     0  0
 11 18  1  0     0  0
 12 14  1  0     0  0
 13 15  2  0     0  0
 19 20  1  0     0  0
 20 21  1  0     0  0
 21 22  1  0     0  0
M  END
> <standard_type>
pIC50

> <# Confs.>
25

> <canonical_smiles>
CCCCC1=NC(Cl)=C(CO)N1CC2=CC=C(C(O)=O)C=C2

> <standard_relation>
=

> <Publication_ID>
nan

> <predicted_activity_value>
5.0

> <actual_activity_value>
4.0

> <Compound>
24

> <standard_units>
nM

> hash
15330608199569978610

$$$$
24_
XXILIB    08252103513D 0   0.00000     0.00000

 22 23  0     1  0            999 V2000
   -3.5606    0.0112   -1.4761 Cl  0  0  0  0  0  1           0  0  0
    2.9761    6.3127   -0.5546 O   0  0  0  0  0  2           0  0  0
    4.7204    5.3543    0.5902 O   0  0  0  0  0  2           0  0  0
   -0.2009   -1.3853   -2.8936 O   0  0  0  0  0  2           0  0  0
    0.0000    0.0000    0.0000 N   0  0  0  0  0  3           0  0  0
   -2.0832    0.0069    0.7729 N   0  0  0  0  0  3           0  0  0
   -2.0995    0.0012   -0.5972 C   0  0  0  0  0  4           0  0  0
   -0.8115    0.0000    1.1181 C   0  0  0  0  0  4           0  0  0
   -0.8170   -0.0114   -1.1136 C   0  0  0  0  0  4           0  0  0
    3.0012    3.9964   -0.0241 C   0  0  0  0  0  4           0  0  0
    1.9920    1.3968    0.0000 C   0  0  0  0  0  4           0  0  0
    3.8867    2.9203   -0.0118 C   0  0  0  0  0  4           0  0  0
    1.6214    3.7992   -0.0391 C   0  0  0  0  0  4           0  0  0
    3.3778    1.6214   -0.0000 C   0  0  0  0  0  4           0  0  0
    1.1207    2.4973   -0.0269 C   0  0  0  0  0  4           0  0  0
    3.5293    5.3565   -0.0447 C   0  0  0  0  0  4           0  0  0
   -0.3376   -0.0246   -2.5112 C   0  0  0  0  0  4           0  0  0
    1.4499   -0.0000    0.0000 C   0  0  0  0  0  4           0  0  0
   -0.3158    0.0019    2.5213 C   0  0  0  0  0  4           0  0  0
   -0.1206   -1.4082    3.0704 C   0  0  0  0  0  4           0  0  0
    0.3875   -1.3773    4.5087 C   0  0  0  0  0  4           0  0  0
    0.5836   -2.7806    5.0601 C   0  0  0  0  0  4           0  0  0
  1  7  1  0     0  0
  2 16  2  0     0  0
  3 16  1  0     0  0
  4 17  1  0     0  0
  5  8  1  0     0  0
  5  9  1  0     0  0
  5 18  1  0     0  0
  6  7  1  0     0  0
  6  8  2  0     0  0
  7  9  2  0     0  0
  8 19  1  0     0  0
  9 17  1  0     0  0
 10 12  2  0     0  0
 10 13  1  0     0  0
 10 16  1  0     0  0
 11 14  2  0     0  0
 11 15  1  0     0  0
 11 18  1  0     0  0
 12 14  1  0     0  0
 13 15  2  0     0  0
 19 20  1  0     0  0
 20 21  1  0     0  0
 21 22  1  0     0  0
M  END
> <standard_type>
pIC50

> <# Confs.>
25

> <canonical_smiles>
CCCCC1=NC(Cl)=C(CO)N1CC2=CC=C(C(O)=O)C=C2

> <standard_relation>
=

> <Publication_ID>
nan

> <predicted_activity_value>
5.0

> <actual_activity_value>
4.0

> <Compound>
24

> <standard_units>
nM

> hash
15330608199569978610

$$$$
24_
XXILIB    08252103513D 0   0.00000     0.00000

 22 23  0     1  0            999 V2000
   -3.5606    0.0112   -1.4761 Cl  0  0  0  0  0  1           0  0  0
    2.9792   -6.3266   -0.4417 O   0  0  0  0  0  2           0  0  0
    4.7134   -5.3375    0.6924 O   0  0  0  0  0  2           0  0  0
   -0.2030    1.3286   -2.9199 O   0  0  0  0  0  2           0  0  0
   -0.0000    0.0000    0.0000 N   0  0  0  0  0  3           0  0  0
   -2.0832    0.0069    0.7729 N   0  0  0  0  0  3           0  0  0
   -2.0995    0.0012   -0.5972 C   0  0  0  0  0  4           0  0  0
   -0.8115    0.0000    1.1181 C   0  0  0  0  0  4           0  0  0
   -0.8170   -0.0114   -1.1136 C   0  0  0  0  0  4           0  0  0
    3.0012   -3.9964    0.0241 C   0  0  0  0  0  4           0  0  0
    1.9920   -1.3968    0.0000 C   0  0  0  0  0  4           0  0  0
    3.8867   -2.9203    0.0118 C   0  0  0  0  0  4           0  0  0
    1.6214   -3.7992    0.0391 C   0  0  0  0  0  4           0  0  0
    3.3778   -1.6214    0.0000 C   0  0  0  0  0  4           0  0  0
    1.1207   -2.4973    0.0269 C   0  0  0  0  0  4           0  0  0
    3.5293   -5.3565    0.0447 C   0  0  0  0  0  4           0  0  0
   -0.3376   -0.0246   -2.5112 C   0  0  0  0  0  4           0  0  0
    1.4499    0.0000   -0.0000 C   0  0  0  0  0  4           0  0  0
   -0.3158    0.0019    2.5213 C   0  0  0  0  0  4           0  0  0
   -0.1240    1.4134    3.0679 C   0  0  0  0  0  4           0  0  0
    0.3841    1.3863    4.5062 C   0  0  0  0  0  4           0  0  0
    0.5767    2.7910    5.0552 C   0  0  0  0  0  4           0  0  0
  1  7  1  0     0  0
  2 16  2  0     0  0
  3 16  1  0     0  0
  4 17  1  0     0  0
  5  8  1  0     0  0
  5  9  1  0     0  0
  5 18  1  0     0  0
  6  7  1  0     0  0
  6  8  2  0     0  0
  7  9  2  0     0  0
  8 19  1  0     0  0
  9 17  1  0     0  0
 10 12  2  0     0  0
 10 13  1  0     0  0
 10 16  1  0     0  0
 11 14  2  0     0  0
 11 15  1  0     0  0
 11 18  1  0     0  0
 12 14  1  0     0  0
 13 15  2  0     0  0
 19 20  1  0     0  0
 20 21  1  0     0  0
 21 22  1  0     0  0
M  END
> <standard_type>
pIC50

> <# Confs.>
25

> <canonical_smiles>
CCCCC1=NC(Cl)=C(CO)N1CC2=CC=C(C(O)=O)C=C2

> <standard_relation>
=

> <Publication_ID>
nan

> <predicted_activity_value>
5.0

> <actual_activity_value>
4.0

> <Compound>
24

> <standard_units>
nM

> hash
15330608199569978610

$$$$
24_
XXILIB    08252103513D 0   0.00000     0.00000

 22 23  0     1  0            999 V2000
   -3.5606    0.0112   -1.4761 Cl  0  0  0  0  0  1           0  0  0
    3.7325    6.0264   -0.9970 O   0  0  0  0  0  2           0  0  0
    3.6341    5.7666    1.2822 O   0  0  0  0  0  2           0  0  0
    0.7064   -0.9841   -2.5862 O   0  0  0  0  0  2           0  0  0
    0.0000   -0.0000    0.0000 N   0  0  0  0  0  3           0  0  0
   -2.0832    0.0069    0.7729 N   0  0  0  0  0  3           0  0  0
   -2.0995    0.0012   -0.5972 C   0  0  0  0  0  4           0  0  0
   -0.8115    0.0000    1.1181 C   0  0  0  0  0  4           0  0  0
   -0.8170   -0.0114   -1.1136 C   0  0  0  0  0  4           0  0  0
    2.9786    4.0052   -0.0002 C   0  0  0  0  0  4           0  0  0
    1.9920    1.3968    0.0000 C   0  0  0  0  0  4           0  0  0
    2.7429    3.3641   -1.2151 C   0  0  0  0  0  4           0  0  0
    2.7174    3.3739    1.2147 C   0  0  0  0  0  4           0  0  0
    2.2492    2.0594   -1.2106 C   0  0  0  0  0  4           0  0  0
    2.2241    2.0691    1.2104 C   0  0  0  0  0  4           0  0  0
    3.4872    5.3728   -0.0005 C   0  0  0  0  0  4           0  0  0
   -0.3376   -0.0246   -2.5112 C   0  0  0  0  0  4           0  0  0
    1.4499   -0.0000   -0.0000 C   0  0  0  0  0  4           0  0  0
   -0.3158    0.0019    2.5213 C   0  0  0  0  0  4           0  0  0
   -1.0617   -0.9959    3.4023 C   0  0  0  0  0  4           0  0  0
   -0.5343   -0.9734    4.8337 C   0  0  0  0  0  4           0  0  0
   -1.2748   -1.9663    5.7155 C   0  0  0  0  0  4           0  0  0
  1  7  1  0     0  0
  2 16  2  0     0  0
  3 16  1  0     0  0
  4 17  1  0     0  0
  5  8  1  0     0  0
  5  9  1  0     0  0
  5 18  1  0     0  0
  6  7  1  0     0  0
  6  8  2  0     0  0
  7  9  2  0     0  0
  8 19  1  0     0  0
  9 17  1  0     0  0
 10 12  2  0     0  0
 10 13  1  0     0  0
 10 16  1  0     0  0
 11 14  2  0     0  0
 11 15  1  0     0  0
 11 18  1  0     0  0
 12 14  1  0     0  0
 13 15  2  0     0  0
 19 20  1  0     0  0
 20 21  1  0     0  0
 21 22  1  0     0  0
M  END
> <standard_type>
pIC50

> <# Confs.>
25

> <canonical_smiles>
CCCCC1=NC(Cl)=C(CO)N1CC2=CC=C(C(O)=O)C=C2

> <standard_relation>
=

> <Publication_ID>
nan

> <predicted_activity_value>
5.0

> <actual_activity_value>
4.0

> <Compound>
24

> <standard_units>
nM

> hash
15330608199569978610

$$$$
24_
XXILIB    08252103513D 0   0.00000     0.00000

 22 23  0     1  0            999 V2000
   -3.5606    0.0112   -1.4761 Cl  0  0  0  0  0  1           0  0  0
    4.1959    5.8544    0.8634 O   0  0  0  0  0  2           0  0  0
    3.0320    5.9900   -1.1112 O   0  0  0  0  0  2           0  0  0
    0.7064   -0.9841   -2.5862 O   0  0  0  0  0  2           0  0  0
    0.0000   -0.0000    0.0000 N   0  0  0  0  0  3           0  0  0
   -2.0832    0.0069    0.7729 N   0  0  0  0  0  3           0  0  0
   -2.0995    0.0012   -0.5972 C   0  0  0  0  0  4           0  0  0
   -0.8115    0.0000    1.1181 C   0  0  0  0  0  4           0  0  0
   -0.8170   -0.0114   -1.1136 C   0  0  0  0  0  4           0  0  0
    2.9786    4.0052   -0.0002 C   0  0  0  0  0  4           0  0  0
    1.9920    1.3968    0.0000 C   0  0  0  0  0  4           0  0  0
    2.7429    3.3641   -1.2151 C   0  0  0  0  0  4           0  0  0
    2.7174    3.3739    1.2147 C   0  0  0  0  0  4           0  0  0
    2.2492    2.0594   -1.2106 C   0  0  0  0  0  4           0  0  0
    2.2241    2.0691    1.2104 C   0  0  0  0  0  4           0  0  0
    3.4872    5.3728   -0.0005 C   0  0  0  0  0  4           0  0  0
   -0.3376   -0.0246   -2.5112 C   0  0  0  0  0  4           0  0  0
    1.4499   -0.0000   -0.0000 C   0  0  0  0  0  4           0  0  0
   -0.3158    0.0019    2.5213 C   0  0  0  0  0  4           0  0  0
   -1.0617   -0.9959    3.4023 C   0  0  0  0  0  4           0  0  0
   -0.5343   -0.9734    4.8337 C   0  0  0  0  0  4           0  0  0
   -1.2748   -1.9663    5.7155 C   0  0  0  0  0  4           0  0  0
  1  7  1  0     0  0
  2 16  2  0     0  0
  3 16  1  0     0  0
  4 17  1  0     0  0
  5  8  1  0     0  0
  5  9  1  0     0  0
  5 18  1  0     0  0
  6  7  1  0     0  0
  6  8  2  0     0  0
  7  9  2  0     0  0
  8 19  1  0     0  0
  9 17  1  0     0  0
 10 12  2  0     0  0
 10 13  1  0     0  0
 10 16  1  0     0  0
 11 14  2  0     0  0
 11 15  1  0     0  0
 11 18  1  0     0  0
 12 14  1  0     0  0
 13 15  2  0     0  0
 19 20  1  0     0  0
 20 21  1  0     0  0
 21 22  1  0     0  0
M  END
> <standard_type>
pIC50

> <# Confs.>
25

> <canonical_smiles>
CCCCC1=NC(Cl)=C(CO)N1CC2=CC=C(C(O)=O)C=C2

> <standard_relation>
=

> <Publication_ID>
nan

> <predicted_activity_value>
5.0

> <actual_activity_value>
4.0

> <Compound>
24

> <standard_units>
nM

> hash
15330608199569978610

$$$$
24_
XXILIB    08252103513D 0   0.00000     0.00000

 22 23  0     1  0            999 V2000
   -3.5606    0.0112   -1.4761 Cl  0  0  0  0  0  1           0  0  0
    3.7287   -6.0282   -0.9958 O   0  0  0  0  0  2           0  0  0
    3.6331   -5.7665    1.2833 O   0  0  0  0  0  2           0  0  0
    0.7050    0.9349   -2.6048 O   0  0  0  0  0  2           0  0  0
   -0.0000    0.0000    0.0000 N   0  0  0  0  0  3           0  0  0
   -2.0832    0.0069    0.7729 N   0  0  0  0  0  3           0  0  0
   -2.0995    0.0012   -0.5972 C   0  0  0  0  0  4           0  0  0
   -0.8115   -0.0000    1.1181 C   0  0  0  0  0  4           0  0  0
   -0.8170   -0.0114   -1.1136 C   0  0  0  0  0  4           0  0  0
    2.9786   -4.0052    0.0002 C   0  0  0  0  0  4           0  0  0
    1.9920   -1.3968    0.0000 C   0  0  0  0  0  4           0  0  0
    2.7429   -3.3641    1.2151 C   0  0  0  0  0  4           0  0  0
    2.7174   -3.3739   -1.2147 C   0  0  0  0  0  4           0  0  0
    2.2492   -2.0594    1.2106 C   0  0  0  0  0  4           0  0  0
    2.2241   -2.0691   -1.2104 C   0  0  0  0  0  4           0  0  0
    3.4872   -5.3728    0.0005 C   0  0  0  0  0  4           0  0  0
   -0.3376   -0.0246   -2.5112 C   0  0  0  0  0  4           0  0  0
    1.4499    0.0000    0.0000 C   0  0  0  0  0  4           0  0  0
   -0.3158    0.0019    2.5213 C   0  0  0  0  0  4           0  0  0
   -1.0641    0.9993    3.4005 C   0  0  0  0  0  4           0  0  0
   -0.5367    0.9807    4.8320 C   0  0  0  0  0  4           0  0  0
   -1.2796    1.9734    5.7120 C   0  0  0  0  0  4           0  0  0
  1  7  1  0     0  0
  2 16  2  0     0  0
  3 16  1  0     0  0
  4 17  1  0     0  0
  5  8  1  0     0  0
  5  9  1  0     0  0
  5 18  1  0     0  0
  6  7  1  0     0  0
  6  8  2  0     0  0
  7  9  2  0     0  0
  8 19  1  0     0  0
  9 17  1  0     0  0
 10 12  2  0     0  0
 10 13  1  0     0  0
 10 16  1  0     0  0
 11 14  2  0     0  0
 11 15  1  0     0  0
 11 18  1  0     0  0
 12 14  1  0     0  0
 13 15  2  0     0  0
 19 20  1  0     0  0
 20 21  1  0     0  0
 21 22  1  0     0  0
M  END
> <standard_type>
pIC50

> <# Confs.>
25

> <canonical_smiles>
CCCCC1=NC(Cl)=C(CO)N1CC2=CC=C(C(O)=O)C=C2

> <standard_relation>
=

> <Publication_ID>
nan

> <predicted_activity_value>
5.0

> <actual_activity_value>
4.0

> <Compound>
24

> <standard_units>
nM

> hash
15330608199569978610

$$$$
24_
XXILIB    08252103513D 0   0.00000     0.00000

 22 23  0     1  0            999 V2000
   -3.5606    0.0112   -1.4761 Cl  0  0  0  0  0  1           0  0  0
    4.5849    5.6880   -0.5509 O   0  0  0  0  0  2           0  0  0
    2.6493    6.1585    0.5910 O   0  0  0  0  0  2           0  0  0
   -0.2009   -1.3853   -2.8936 O   0  0  0  0  0  2           0  0  0
    0.0000   -0.0000    0.0000 N   0  0  0  0  0  3           0  0  0
   -2.0832    0.0069    0.7729 N   0  0  0  0  0  3           0  0  0
   -2.0995    0.0012   -0.5972 C   0  0  0  0  0  4           0  0  0
   -0.8115   -0.0000    1.1181 C   0  0  0  0  0  4           0  0  0
   -0.8170   -0.0114   -1.1136 C   0  0  0  0  0  4           0  0  0
    3.0012    3.9964   -0.0241 C   0  0  0  0  0  4           0  0  0
    1.9920    1.3968    0.0000 C   0  0  0  0  0  4           0  0  0
    3.8867    2.9203   -0.0118 C   0  0  0  0  0  4           0  0  0
    1.6214    3.7992   -0.0391 C   0  0  0  0  0  4           0  0  0
    3.3778    1.6214   -0.0000 C   0  0  0  0  0  4           0  0  0
    1.1207    2.4973   -0.0269 C   0  0  0  0  0  4           0  0  0
    3.5293    5.3565   -0.0447 C   0  0  0  0  0  4           0  0  0
   -0.3376   -0.0246   -2.5112 C   0  0  0  0  0  4           0  0  0
    1.4499   -0.0000    0.0000 C   0  0  0  0  0  4           0  0  0
   -0.3158    0.0019    2.5213 C   0  0  0  0  0  4           0  0  0
   -1.4525    0.0014    3.5390 C   0  0  0  0  0  4           0  0  0
   -0.9171    0.0033    4.9677 C   0  0  0  0  0  4           0  0  0
   -2.0466    0.0028    5.9855 C   0  0  0  0  0  4           0  0  0
  1  7  1  0     0  0
  2 16  2  0     0  0
  3 16  1  0     0  0
  4 17  1  0     0  0
  5  8  1  0     0  0
  5  9  1  0     0  0
  5 18  1  0     0  0
  6  7  1  0     0  0
  6  8  2  0     0  0
  7  9  2  0     0  0
  8 19  1  0     0  0
  9 17  1  0     0  0
 10 12  2  0     0  0
 10 13  1  0     0  0
 10 16  1  0     0  0
 11 14  2  0     0  0
 11 15  1  0     0  0
 11 18  1  0     0  0
 12 14  1  0     0  0
 13 15  2  0     0  0
 19 20  1  0     0  0
 20 21  1  0     0  0
 21 22  1  0     0  0
M  END
> <standard_type>
pIC50

> <# Confs.>
25

> <canonical_smiles>
CCCCC1=NC(Cl)=C(CO)N1CC2=CC=C(C(O)=O)C=C2

> <standard_relation>
=

> <Publication_ID>
nan

> <predicted_activity_value>
5.0

> <actual_activity_value>
4.0

> <Compound>
24

> <standard_units>
nM

> hash
15330608199569978610

$$$$
24_
XXILIB    08252103513D 0   0.00000     0.00000

 22 23  0     1  0            999 V2000
   -3.5606    0.0112   -1.4761 Cl  0  0  0  0  0  1           0  0  0
    4.1992   -5.8529    0.8624 O   0  0  0  0  0  2           0  0  0
    3.0329   -5.9901   -1.1106 O   0  0  0  0  0  2           0  0  0
    0.7050    0.9349   -2.6048 O   0  0  0  0  0  2           0  0  0
   -0.0000    0.0000    0.0000 N   0  0  0  0  0  3           0  0  0
   -2.0832    0.0069    0.7729 N   0  0  0  0  0  3           0  0  0
   -2.0995    0.0012   -0.5972 C   0  0  0  0  0  4           0  0  0
   -0.8115   -0.0000    1.1181 C   0  0  0  0  0  4           0  0  0
   -0.8170   -0.0114   -1.1136 C   0  0  0  0  0  4           0  0  0
    2.9786   -4.0052    0.0002 C   0  0  0  0  0  4           0  0  0
    1.9920   -1.3968    0.0000 C   0  0  0  0  0  4           0  0  0
    2.7429   -3.3641    1.2151 C   0  0  0  0  0  4           0  0  0
    2.7174   -3.3739   -1.2147 C   0  0  0  0  0  4           0  0  0
    2.2492   -2.0594    1.2106 C   0  0  0  0  0  4           0  0  0
    2.2241   -2.0691   -1.2104 C   0  0  0  0  0  4           0  0  0
    3.4872   -5.3728    0.0005 C   0  0  0  0  0  4           0  0  0
   -0.3376   -0.0246   -2.5112 C   0  0  0  0  0  4           0  0  0
    1.4499    0.0000    0.0000 C   0  0  0  0  0  4           0  0  0
   -0.3158    0.0019    2.5213 C   0  0  0  0  0  4           0  0  0
   -1.0641    0.9993    3.4005 C   0  0  0  0  0  4           0  0  0
   -0.5367    0.9807    4.8320 C   0  0  0  0  0  4           0  0  0
   -1.2796    1.9734    5.7120 C   0  0  0  0  0  4           0  0  0
  1  7  1  0     0  0
  2 16  2  0     0  0
  3 16  1  0     0  0
  4 17  1  0     0  0
  5  8  1  0     0  0
  5  9  1  0     0  0
  5 18  1  0     0  0
  6  7  1  0     0  0
  6  8  2  0     0  0
  7  9  2  0     0  0
  8 19  1  0     0  0
  9 17  1  0     0  0
 10 12  2  0     0  0
 10 13  1  0     0  0
 10 16  1  0     0  0
 11 14  2  0     0  0
 11 15  1  0     0  0
 11 18  1  0     0  0
 12 14  1  0     0  0
 13 15  2  0     0  0
 19 20  1  0     0  0
 20 21  1  0     0  0
 21 22  1  0     0  0
M  END
> <standard_type>
pIC50

> <# Confs.>
25

> <canonical_smiles>
CCCCC1=NC(Cl)=C(CO)N1CC2=CC=C(C(O)=O)C=C2

> <standard_relation>
=

> <Publication_ID>
nan

> <predicted_activity_value>
5.0

> <actual_activity_value>
4.0

> <Compound>
24

> <standard_units>
nM

> hash
15330608199569978610

$$$$
24_
XXILIB    08252103513D 0   0.00000     0.00000

 22 23  0     1  0            999 V2000
   -3.5606    0.0112   -1.4761 Cl  0  0  0  0  0  1           0  0  0
    4.5849   -5.6880    0.5509 O   0  0  0  0  0  2           0  0  0
    2.6493   -6.1585   -0.5910 O   0  0  0  0  0  2           0  0  0
   -0.2030    1.3286   -2.9199 O   0  0  0  0  0  2           0  0  0
    0.0000   -0.0000    0.0000 N   0  0  0  0  0  3           0  0  0
   -2.0832    0.0069    0.7729 N   0  0  0  0  0  3           0  0  0
   -2.0995    0.0012   -0.5972 C   0  0  0  0  0  4           0  0  0
   -0.8115   -0.0000    1.1181 C   0  0  0  0  0  4           0  0  0
   -0.8170   -0.0114   -1.1136 C   0  0  0  0  0  4           0  0  0
    3.0012   -3.9964    0.0241 C   0  0  0  0  0  4           0  0  0
    1.9920   -1.3968    0.0000 C   0  0  0  0  0  4           0  0  0
    3.8867   -2.9203    0.0118 C   0  0  0  0  0  4           0  0  0
    1.6214   -3.7992    0.0391 C   0  0  0  0  0  4           0  0  0
    3.3778   -1.6214    0.0000 C   0  0  0  0  0  4           0  0  0
    1.1207   -2.4973    0.0269 C   0  0  0  0  0  4           0  0  0
    3.5293   -5.3565    0.0447 C   0  0  0  0  0  4           0  0  0
   -0.3376   -0.0246   -2.5112 C   0  0  0  0  0  4           0  0  0
    1.4499    0.0000   -0.0000 C   0  0  0  0  0  4           0  0  0
   -0.3158    0.0019    2.5213 C   0  0  0  0  0  4           0  0  0
   -1.4525    0.0014    3.5390 C   0  0  0  0  0  4           0  0  0
   -0.9171    0.0033    4.9677 C   0  0  0  0  0  4           0  0  0
   -2.0466    0.0028    5.9855 C   0  0  0  0  0  4           0  0  0
  1  7  1  0     0  0
  2 16  2  0     0  0
  3 16  1  0     0  0
  4 17  1  0     0  0
  5  8  1  0     0  0
  5  9  1  0     0  0
  5 18  1  0     0  0
  6  7  1  0     0  0
  6  8  2  0     0  0
  7  9  2  0     0  0
  8 19  1  0     0  0
  9 17  1  0     0  0
 10 12  2  0     0  0
 10 13  1  0     0  0
 10 16  1  0     0  0
 11 14  2  0     0  0
 11 15  1  0     0  0
 11 18  1  0     0  0
 12 14  1  0     0  0
 13 15  2  0     0  0
 19 20  1  0     0  0
 20 21  1  0     0  0
 21 22  1  0     0  0
M  END
> <standard_type>
pIC50

> <# Confs.>
25

> <canonical_smiles>
CCCCC1=NC(Cl)=C(CO)N1CC2=CC=C(C(O)=O)C=C2

> <standard_relation>
=

> <Publication_ID>
nan

> <predicted_activity_value>
5.0

> <actual_activity_value>
4.0

> <Compound>
24

> <standard_units>
nM

> hash
15330608199569978610

$$$$
24_
XXILIB    08252103513D 0   0.00000     0.00000

 22 23  0     1  0            999 V2000
   -3.5606    0.0112   -1.4761 Cl  0  0  0  0  0  1           0  0  0
    3.7325    6.0264   -0.9970 O   0  0  0  0  0  2           0  0  0
    3.6341    5.7666    1.2822 O   0  0  0  0  0  2           0  0  0
    0.7064   -0.9841   -2.5862 O   0  0  0  0  0  2           0  0  0
    0.0000   -0.0000    0.0000 N   0  0  0  0  0  3           0  0  0
   -2.0832    0.0069    0.7729 N   0  0  0  0  0  3           0  0  0
   -2.0995    0.0012   -0.5972 C   0  0  0  0  0  4           0  0  0
   -0.8115    0.0000    1.1181 C   0  0  0  0  0  4           0  0  0
   -0.8170   -0.0114   -1.1136 C   0  0  0  0  0  4           0  0  0
    2.9786    4.0052   -0.0002 C   0  0  0  0  0  4           0  0  0
    1.9920    1.3968    0.0000 C   0  0  0  0  0  4           0  0  0
    2.7429    3.3641   -1.2151 C   0  0  0  0  0  4           0  0  0
    2.7174    3.3739    1.2147 C   0  0  0  0  0  4           0  0  0
    2.2492    2.0594   -1.2106 C   0  0  0  0  0  4           0  0  0
    2.2241    2.0691    1.2104 C   0  0  0  0  0  4           0  0  0
    3.4872    5.3728   -0.0005 C   0  0  0  0  0  4           0  0  0
   -0.3376   -0.0246   -2.5112 C   0  0  0  0  0  4           0  0  0
    1.4499   -0.0000   -0.0000 C   0  0  0  0  0  4           0  0  0
   -0.3158    0.0019    2.5213 C   0  0  0  0  0  4           0  0  0
   -1.0617   -0.9959    3.4023 C   0  0  0  0  0  4           0  0  0
   -0.9098   -2.4203    2.8772 C   0  0  0  0  0  4           0  0  0
   -1.6516   -3.4182    3.7522 C   0  0  0  0  0  4           0  0  0
  1  7  1  0     0  0
  2 16  2  0     0  0
  3 16  1  0     0  0
  4 17  1  0     0  0
  5  8  1  0     0  0
  5  9  1  0     0  0
  5 18  1  0     0  0
  6  7  1  0     0  0
  6  8  2  0     0  0
  7  9  2  0     0  0
  8 19  1  0     0  0
  9 17  1  0     0  0
 10 12  2  0     0  0
 10 13  1  0     0  0
 10 16  1  0     0  0
 11 14  2  0     0  0
 11 15  1  0     0  0
 11 18  1  0     0  0
 12 14  1  0     0  0
 13 15  2  0     0  0
 19 20  1  0     0  0
 20 21  1  0     0  0
 21 22  1  0     0  0
M  END
> <standard_type>
pIC50

> <# Confs.>
25

> <canonical_smiles>
CCCCC1=NC(Cl)=C(CO)N1CC2=CC=C(C(O)=O)C=C2

> <standard_relation>
=

> <Publication_ID>
nan

> <predicted_activity_value>
5.0

> <actual_activity_value>
4.0

> <Compound>
24

> <standard_units>
nM

> hash
15330608199569978610

$$$$
24_
XXILIB    08252103513D 0   0.00000     0.00000

 22 23  0     1  0            999 V2000
   -3.5606    0.0112   -1.4761 Cl  0  0  0  0  0  1           0  0  0
    2.9761    6.3127   -0.5546 O   0  0  0  0  0  2           0  0  0
    4.7204    5.3543    0.5902 O   0  0  0  0  0  2           0  0  0
   -0.2009   -1.3853   -2.8936 O   0  0  0  0  0  2           0  0  0
    0.0000   -0.0000    0.0000 N   0  0  0  0  0  3           0  0  0
   -2.0832    0.0069    0.7729 N   0  0  0  0  0  3           0  0  0
   -2.0995    0.0012   -0.5972 C   0  0  0  0  0  4           0  0  0
   -0.8115   -0.0000    1.1181 C   0  0  0  0  0  4           0  0  0
   -0.8170   -0.0114   -1.1136 C   0  0  0  0  0  4           0  0  0
    3.0012    3.9964   -0.0241 C   0  0  0  0  0  4           0  0  0
    1.9920    1.3968    0.0000 C   0  0  0  0  0  4           0  0  0
    3.8867    2.9203   -0.0118 C   0  0  0  0  0  4           0  0  0
    1.6214    3.7992   -0.0391 C   0  0  0  0  0  4           0  0  0
    3.3778    1.6214   -0.0000 C   0  0  0  0  0  4           0  0  0
    1.1207    2.4973   -0.0269 C   0  0  0  0  0  4           0  0  0
    3.5293    5.3565   -0.0447 C   0  0  0  0  0  4           0  0  0
   -0.3376   -0.0246   -2.5112 C   0  0  0  0  0  4           0  0  0
    1.4499   -0.0000    0.0000 C   0  0  0  0  0  4           0  0  0
   -0.3158    0.0019    2.5213 C   0  0  0  0  0  4           0  0  0
   -1.4525    0.0014    3.5390 C   0  0  0  0  0  4           0  0  0
   -0.9171    0.0033    4.9677 C   0  0  0  0  0  4           0  0  0
   -2.0466    0.0028    5.9855 C   0  0  0  0  0  4           0  0  0
  1  7  1  0     0  0
  2 16  2  0     0  0
  3 16  1  0     0  0
  4 17  1  0     0  0
  5  8  1  0     0  0
  5  9  1  0     0  0
  5 18  1  0     0  0
  6  7  1  0     0  0
  6  8  2  0     0  0
  7  9  2  0     0  0
  8 19  1  0     0  0
  9 17  1  0     0  0
 10 12  2  0     0  0
 10 13  1  0     0  0
 10 16  1  0     0  0
 11 14  2  0     0  0
 11 15  1  0     0  0
 11 18  1  0     0  0
 12 14  1  0     0  0
 13 15  2  0     0  0
 19 20  1  0     0  0
 20 21  1  0     0  0
 21 22  1  0     0  0
M  END
> <standard_type>
pIC50

> <# Confs.>
25

> <canonical_smiles>
CCCCC1=NC(Cl)=C(CO)N1CC2=CC=C(C(O)=O)C=C2

> <standard_relation>
=

> <Publication_ID>
nan

> <predicted_activity_value>
5.0

> <actual_activity_value>
4.0

> <Compound>
24

> <standard_units>
nM

> hash
15330608199569978610

$$$$
24_
XXILIB    08252103513D 0   0.00000     0.00000

 22 23  0     1  0            999 V2000
   -3.5606    0.0112   -1.4761 Cl  0  0  0  0  0  1           0  0  0
    4.1959    5.8544    0.8634 O   0  0  0  0  0  2           0  0  0
    3.0320    5.9900   -1.1112 O   0  0  0  0  0  2           0  0  0
    0.7064   -0.9841   -2.5862 O   0  0  0  0  0  2           0  0  0
    0.0000   -0.0000    0.0000 N   0  0  0  0  0  3           0  0  0
   -2.0832    0.0069    0.7729 N   0  0  0  0  0  3           0  0  0
   -2.0995    0.0012   -0.5972 C   0  0  0  0  0  4           0  0  0
   -0.8115    0.0000    1.1181 C   0  0  0  0  0  4           0  0  0
   -0.8170   -0.0114   -1.1136 C   0  0  0  0  0  4           0  0  0
    2.9786    4.0052   -0.0002 C   0  0  0  0  0  4           0  0  0
    1.9920    1.3968    0.0000 C   0  0  0  0  0  4           0  0  0
    2.7429    3.3641   -1.2151 C   0  0  0  0  0  4           0  0  0
    2.7174    3.3739    1.2147 C   0  0  0  0  0  4           0  0  0
    2.2492    2.0594   -1.2106 C   0  0  0  0  0  4           0  0  0
    2.2241    2.0691    1.2104 C   0  0  0  0  0  4           0  0  0
    3.4872    5.3728   -0.0005 C   0  0  0  0  0  4           0  0  0
   -0.3376   -0.0246   -2.5112 C   0  0  0  0  0  4           0  0  0
    1.4499   -0.0000   -0.0000 C   0  0  0  0  0  4           0  0  0
   -0.3158    0.0019    2.5213 C   0  0  0  0  0  4           0  0  0
   -1.0617   -0.9959    3.4023 C   0  0  0  0  0  4           0  0  0
   -0.9098   -2.4203    2.8772 C   0  0  0  0  0  4           0  0  0
   -1.6516   -3.4182    3.7522 C   0  0  0  0  0  4           0  0  0
  1  7  1  0     0  0
  2 16  2  0     0  0
  3 16  1  0     0  0
  4 17  1  0     0  0
  5  8  1  0     0  0
  5  9  1  0     0  0
  5 18  1  0     0  0
  6  7  1  0     0  0
  6  8  2  0     0  0
  7  9  2  0     0  0
  8 19  1  0     0  0
  9 17  1  0     0  0
 10 12  2  0     0  0
 10 13  1  0     0  0
 10 16  1  0     0  0
 11 14  2  0     0  0
 11 15  1  0     0  0
 11 18  1  0     0  0
 12 14  1  0     0  0
 13 15  2  0     0  0
 19 20  1  0     0  0
 20 21  1  0     0  0
 21 22  1  0     0  0
M  END
> <standard_type>
pIC50

> <# Confs.>
25

> <canonical_smiles>
CCCCC1=NC(Cl)=C(CO)N1CC2=CC=C(C(O)=O)C=C2

> <standard_relation>
=

> <Publication_ID>
nan

> <predicted_activity_value>
5.0

> <actual_activity_value>
4.0

> <Compound>
24

> <standard_units>
nM

> hash
15330608199569978610

$$$$
24_
XXILIB    08252103513D 0   0.00000     0.00000

 22 23  0     1  0            999 V2000
   -3.5606    0.0112   -1.4761 Cl  0  0  0  0  0  1           0  0  0
    4.5849    5.6880   -0.5509 O   0  0  0  0  0  2           0  0  0
    2.6493    6.1585    0.5910 O   0  0  0  0  0  2           0  0  0
   -0.2009   -1.3853   -2.8936 O   0  0  0  0  0  2           0  0  0
    0.0000    0.0000    0.0000 N   0  0  0  0  0  3           0  0  0
   -2.0832    0.0069    0.7729 N   0  0  0  0  0  3           0  0  0
   -2.0995    0.0012   -0.5972 C   0  0  0  0  0  4           0  0  0
   -0.8115    0.0000    1.1181 C   0  0  0  0  0  4           0  0  0
   -0.8170   -0.0114   -1.1136 C   0  0  0  0  0  4           0  0  0
    3.0012    3.9964   -0.0241 C   0  0  0  0  0  4           0  0  0
    1.9920    1.3968    0.0000 C   0  0  0  0  0  4           0  0  0
    3.8867    2.9203   -0.0118 C   0  0  0  0  0  4           0  0  0
    1.6214    3.7992   -0.0391 C   0  0  0  0  0  4           0  0  0
    3.3778    1.6214   -0.0000 C   0  0  0  0  0  4           0  0  0
    1.1207    2.4973   -0.0269 C   0  0  0  0  0  4           0  0  0
    3.5293    5.3565   -0.0447 C   0  0  0  0  0  4           0  0  0
   -0.3376   -0.0246   -2.5112 C   0  0  0  0  0  4           0  0  0
    1.4499   -0.0000    0.0000 C   0  0  0  0  0  4           0  0  0
   -0.3158    0.0019    2.5213 C   0  0  0  0  0  4           0  0  0
   -0.1206   -1.4082    3.0704 C   0  0  0  0  0  4           0  0  0
   -1.4290   -2.1928    3.0603 C   0  0  0  0  0  4           0  0  0
   -1.2393   -3.5989    3.6068 C   0  0  0  0  0  4           0  0  0
  1  7  1  0     0  0
  2 16  2  0     0  0
  3 16  1  0     0  0
  4 17  1  0     0  0
  5  8  1  0     0  0
  5  9  1  0     0  0
  5 18  1  0     0  0
  6  7  1  0     0  0
  6  8  2  0     0  0
  7  9  2  0     0  0
  8 19  1  0     0  0
  9 17  1  0     0  0
 10 12  2  0     0  0
 10 13  1  0     0  0
 10 16  1  0     0  0
 11 14  2  0     0  0
 11 15  1  0     0  0
 11 18  1  0     0  0
 12 14  1  0     0  0
 13 15  2  0     0  0
 19 20  1  0     0  0
 20 21  1  0     0  0
 21 22  1  0     0  0
M  END
> <standard_type>
pIC50

> <# Confs.>
25

> <canonical_smiles>
CCCCC1=NC(Cl)=C(CO)N1CC2=CC=C(C(O)=O)C=C2

> <standard_relation>
=

> <Publication_ID>
nan

> <predicted_activity_value>
5.0

> <actual_activity_value>
4.0

> <Compound>
24

> <standard_units>
nM

> hash
15330608199569978610

$$$$
24_
XXILIB    08252103513D 0   0.00000     0.00000

 22 23  0     1  0            999 V2000
   -3.5606    0.0112   -1.4761 Cl  0  0  0  0  0  1           0  0  0
    2.9792   -6.3266   -0.4417 O   0  0  0  0  0  2           0  0  0
    4.7134   -5.3375    0.6924 O   0  0  0  0  0  2           0  0  0
   -0.2030    1.3286   -2.9199 O   0  0  0  0  0  2           0  0  0
    0.0000   -0.0000    0.0000 N   0  0  0  0  0  3           0  0  0
   -2.0832    0.0069    0.7729 N   0  0  0  0  0  3           0  0  0
   -2.0995    0.0012   -0.5972 C   0  0  0  0  0  4           0  0  0
   -0.8115   -0.0000    1.1181 C   0  0  0  0  0  4           0  0  0
   -0.8170   -0.0114   -1.1136 C   0  0  0  0  0  4           0  0  0
    3.0012   -3.9964    0.0241 C   0  0  0  0  0  4           0  0  0
    1.9920   -1.3968    0.0000 C   0  0  0  0  0  4           0  0  0
    3.8867   -2.9203    0.0118 C   0  0  0  0  0  4           0  0  0
    1.6214   -3.7992    0.0391 C   0  0  0  0  0  4           0  0  0
    3.3778   -1.6214    0.0000 C   0  0  0  0  0  4           0  0  0
    1.1207   -2.4973    0.0269 C   0  0  0  0  0  4           0  0  0
    3.5293   -5.3565    0.0447 C   0  0  0  0  0  4           0  0  0
   -0.3376   -0.0246   -2.5112 C   0  0  0  0  0  4           0  0  0
    1.4499    0.0000   -0.0000 C   0  0  0  0  0  4           0  0  0
   -0.3158    0.0019    2.5213 C   0  0  0  0  0  4           0  0  0
   -1.4525    0.0014    3.5390 C   0  0  0  0  0  4           0  0  0
   -0.9171    0.0033    4.9677 C   0  0  0  0  0  4           0  0  0
   -2.0466    0.0028    5.9855 C   0  0  0  0  0  4           0  0  0
  1  7  1  0     0  0
  2 16  2  0     0  0
  3 16  1  0     0  0
  4 17  1  0     0  0
  5  8  1  0     0  0
  5  9  1  0     0  0
  5 18  1  0     0  0
  6  7  1  0     0  0
  6  8  2  0     0  0
  7  9  2  0     0  0
  8 19  1  0     0  0
  9 17  1  0     0  0
 10 12  2  0     0  0
 10 13  1  0     0  0
 10 16  1  0     0  0
 11 14  2  0     0  0
 11 15  1  0     0  0
 11 18  1  0     0  0
 12 14  1  0     0  0
 13 15  2  0     0  0
 19 20  1  0     0  0
 20 21  1  0     0  0
 21 22  1  0     0  0
M  END
> <standard_type>
pIC50

> <# Confs.>
25

> <canonical_smiles>
CCCCC1=NC(Cl)=C(CO)N1CC2=CC=C(C(O)=O)C=C2

> <standard_relation>
=

> <Publication_ID>
nan

> <predicted_activity_value>
5.0

> <actual_activity_value>
4.0

> <Compound>
24

> <standard_units>
nM

> hash
15330608199569978610

$$$$
24_
XXILIB    08252103513D 0   0.00000     0.00000

 22 23  0     1  0            999 V2000
   -3.5606    0.0112   -1.4761 Cl  0  0  0  0  0  1           0  0  0
    3.2620   -6.2018   -0.8613 O   0  0  0  0  0  2           0  0  0
    4.2343   -5.5429    1.1116 O   0  0  0  0  0  2           0  0  0
    0.7050    0.9349   -2.6048 O   0  0  0  0  0  2           0  0  0
   -0.0000    0.0000    0.0000 N   0  0  0  0  0  3           0  0  0
   -2.0832    0.0069    0.7729 N   0  0  0  0  0  3           0  0  0
   -2.0995    0.0012   -0.5972 C   0  0  0  0  0  4           0  0  0
   -0.8115   -0.0000    1.1181 C   0  0  0  0  0  4           0  0  0
   -0.8170   -0.0114   -1.1136 C   0  0  0  0  0  4           0  0  0
    2.9786   -4.0052    0.0002 C   0  0  0  0  0  4           0  0  0
    1.9920   -1.3968    0.0000 C   0  0  0  0  0  4           0  0  0
    2.7429   -3.3641    1.2151 C   0  0  0  0  0  4           0  0  0
    2.7174   -3.3739   -1.2147 C   0  0  0  0  0  4           0  0  0
    2.2492   -2.0594    1.2106 C   0  0  0  0  0  4           0  0  0
    2.2241   -2.0691   -1.2104 C   0  0  0  0  0  4           0  0  0
    3.4872   -5.3728    0.0005 C   0  0  0  0  0  4           0  0  0
   -0.3376   -0.0246   -2.5112 C   0  0  0  0  0  4           0  0  0
    1.4499    0.0000    0.0000 C   0  0  0  0  0  4           0  0  0
   -0.3158    0.0019    2.5213 C   0  0  0  0  0  4           0  0  0
   -1.0641    0.9993    3.4005 C   0  0  0  0  0  4           0  0  0
   -0.9157    2.4232    2.8729 C   0  0  0  0  0  4           0  0  0
   -1.6600    3.4208    3.7461 C   0  0  0  0  0  4           0  0  0
  1  7  1  0     0  0
  2 16  2  0     0  0
  3 16  1  0     0  0
  4 17  1  0     0  0
  5  8  1  0     0  0
  5  9  1  0     0  0
  5 18  1  0     0  0
  6  7  1  0     0  0
  6  8  2  0     0  0
  7  9  2  0     0  0
  8 19  1  0     0  0
  9 17  1  0     0  0
 10 12  2  0     0  0
 10 13  1  0     0  0
 10 16  1  0     0  0
 11 14  2  0     0  0
 11 15  1  0     0  0
 11 18  1  0     0  0
 12 14  1  0     0  0
 13 15  2  0     0  0
 19 20  1  0     0  0
 20 21  1  0     0  0
 21 22  1  0     0  0
M  END
> <standard_type>
pIC50

> <# Confs.>
25

> <canonical_smiles>
CCCCC1=NC(Cl)=C(CO)N1CC2=CC=C(C(O)=O)C=C2

> <standard_relation>
=

> <Publication_ID>
nan

> <predicted_activity_value>
5.0

> <actual_activity_value>
4.0

> <Compound>
24

> <standard_units>
nM

> hash
15330608199569978610

$$$$
24_
XXILIB    08252103513D 0   0.00000     0.00000

 22 23  0     1  0            999 V2000
   -3.5606    0.0112   -1.4761 Cl  0  0  0  0  0  1           0  0  0
    4.5880   -5.7020   -0.4454 O   0  0  0  0  0  2           0  0  0
    2.6423   -6.1417    0.6916 O   0  0  0  0  0  2           0  0  0
   -0.2030    1.3286   -2.9199 O   0  0  0  0  0  2           0  0  0
    0.0000   -0.0000    0.0000 N   0  0  0  0  0  3           0  0  0
   -2.0832    0.0069    0.7729 N   0  0  0  0  0  3           0  0  0
   -2.0995    0.0012   -0.5972 C   0  0  0  0  0  4           0  0  0
   -0.8115    0.0000    1.1181 C   0  0  0  0  0  4           0  0  0
   -0.8170   -0.0114   -1.1136 C   0  0  0  0  0  4           0  0  0
    3.0012   -3.9964    0.0241 C   0  0  0  0  0  4           0  0  0
    1.9920   -1.3968    0.0000 C   0  0  0  0  0  4           0  0  0
    3.8867   -2.9203    0.0118 C   0  0  0  0  0  4           0  0  0
    1.6214   -3.7992    0.0391 C   0  0  0  0  0  4           0  0  0
    3.3778   -1.6214    0.0000 C   0  0  0  0  0  4           0  0  0
    1.1207   -2.4973    0.0269 C   0  0  0  0  0  4           0  0  0
    3.5293   -5.3565    0.0447 C   0  0  0  0  0  4           0  0  0
   -0.3376   -0.0246   -2.5112 C   0  0  0  0  0  4           0  0  0
    1.4499    0.0000   -0.0000 C   0  0  0  0  0  4           0  0  0
   -0.3158    0.0019    2.5213 C   0  0  0  0  0  4           0  0  0
   -1.0617   -0.9959    3.4023 C   0  0  0  0  0  4           0  0  0
   -0.5343   -0.9734    4.8337 C   0  0  0  0  0  4           0  0  0
   -1.2748   -1.9663    5.7155 C   0  0  0  0  0  4           0  0  0
  1  7  1  0     0  0
  2 16  2  0     0  0
  3 16  1  0     0  0
  4 17  1  0     0  0
  5  8  1  0     0  0
  5  9  1  0     0  0
  5 18  1  0     0  0
  6  7  1  0     0  0
  6  8  2  0     0  0
  7  9  2  0     0  0
  8 19  1  0     0  0
  9 17  1  0     0  0
 10 12  2  0     0  0
 10 13  1  0     0  0
 10 16  1  0     0  0
 11 14  2  0     0  0
 11 15  1  0     0  0
 11 18  1  0     0  0
 12 14  1  0     0  0
 13 15  2  0     0  0
 19 20  1  0     0  0
 20 21  1  0     0  0
 21 22  1  0     0  0
M  END
> <standard_type>
pIC50

> <# Confs.>
25

> <canonical_smiles>
CCCCC1=NC(Cl)=C(CO)N1CC2=CC=C(C(O)=O)C=C2

> <standard_relation>
=

> <Publication_ID>
nan

> <predicted_activity_value>
5.0

> <actual_activity_value>
4.0

> <Compound>
24

> <standard_units>
nM

> hash
15330608199569978610

$$$$
24_
XXILIB    08252103513D 0   0.00000     0.00000

 22 23  0     1  0            999 V2000
   -3.5606    0.0112   -1.4761 Cl  0  0  0  0  0  1           0  0  0
    4.5849   -5.6880    0.5509 O   0  0  0  0  0  2           0  0  0
    2.6493   -6.1585   -0.5910 O   0  0  0  0  0  2           0  0  0
   -0.2030    1.3286   -2.9199 O   0  0  0  0  0  2           0  0  0
   -0.0000    0.0000    0.0000 N   0  0  0  0  0  3           0  0  0
   -2.0832    0.0069    0.7729 N   0  0  0  0  0  3           0  0  0
   -2.0995    0.0012   -0.5972 C   0  0  0  0  0  4           0  0  0
   -0.8115    0.0000    1.1181 C   0  0  0  0  0  4           0  0  0
   -0.8170   -0.0114   -1.1136 C   0  0  0  0  0  4           0  0  0
    3.0012   -3.9964    0.0241 C   0  0  0  0  0  4           0  0  0
    1.9920   -1.3968    0.0000 C   0  0  0  0  0  4           0  0  0
    3.8867   -2.9203    0.0118 C   0  0  0  0  0  4           0  0  0
    1.6214   -3.7992    0.0391 C   0  0  0  0  0  4           0  0  0
    3.3778   -1.6214    0.0000 C   0  0  0  0  0  4           0  0  0
    1.1207   -2.4973    0.0269 C   0  0  0  0  0  4           0  0  0
    3.5293   -5.3565    0.0447 C   0  0  0  0  0  4           0  0  0
   -0.3376   -0.0246   -2.5112 C   0  0  0  0  0  4           0  0  0
    1.4499    0.0000   -0.0000 C   0  0  0  0  0  4           0  0  0
   -0.3158    0.0019    2.5213 C   0  0  0  0  0  4           0  0  0
   -0.1240    1.4134    3.0679 C   0  0  0  0  0  4           0  0  0
   -1.4344    2.1947    3.0564 C   0  0  0  0  0  4           0  0  0
   -1.2481    3.6023    3.6003 C   0  0  0  0  0  4           0  0  0
  1  7  1  0     0  0
  2 16  2  0     0  0
  3 16  1  0     0  0
  4 17  1  0     0  0
  5  8  1  0     0  0
  5  9  1  0     0  0
  5 18  1  0     0  0
  6  7  1  0     0  0
  6  8  2  0     0  0
  7  9  2  0     0  0
  8 19  1  0     0  0
  9 17  1  0     0  0
 10 12  2  0     0  0
 10 13  1  0     0  0
 10 16  1  0     0  0
 11 14  2  0     0  0
 11 15  1  0     0  0
 11 18  1  0     0  0
 12 14  1  0     0  0
 13 15  2  0     0  0
 19 20  1  0     0  0
 20 21  1  0     0  0
 21 22  1  0     0  0
M  END
> <standard_type>
pIC50

> <# Confs.>
25

> <canonical_smiles>
CCCCC1=NC(Cl)=C(CO)N1CC2=CC=C(C(O)=O)C=C2

> <standard_relation>
=

> <Publication_ID>
nan

> <predicted_activity_value>
5.0

> <actual_activity_value>
4.0

> <Compound>
24

> <standard_units>
nM

> hash
15330608199569978610

$$$$
24_
XXILIB    08252103513D 0   0.00000     0.00000

 22 23  0     1  0            999 V2000
   -3.5606    0.0112   -1.4761 Cl  0  0  0  0  0  1           0  0  0
    4.1992   -5.8529    0.8624 O   0  0  0  0  0  2           0  0  0
    3.0329   -5.9901   -1.1106 O   0  0  0  0  0  2           0  0  0
    0.7050    0.9349   -2.6048 O   0  0  0  0  0  2           0  0  0
   -0.0000    0.0000    0.0000 N   0  0  0  0  0  3           0  0  0
   -2.0832    0.0069    0.7729 N   0  0  0  0  0  3           0  0  0
   -2.0995    0.0012   -0.5972 C   0  0  0  0  0  4           0  0  0
   -0.8115   -0.0000    1.1181 C   0  0  0  0  0  4           0  0  0
   -0.8170   -0.0114   -1.1136 C   0  0  0  0  0  4           0  0  0
    2.9786   -4.0052    0.0002 C   0  0  0  0  0  4           0  0  0
    1.9920   -1.3968    0.0000 C   0  0  0  0  0  4           0  0  0
    2.7429   -3.3641    1.2151 C   0  0  0  0  0  4           0  0  0
    2.7174   -3.3739   -1.2147 C   0  0  0  0  0  4           0  0  0
    2.2492   -2.0594    1.2106 C   0  0  0  0  0  4           0  0  0
    2.2241   -2.0691   -1.2104 C   0  0  0  0  0  4           0  0  0
    3.4872   -5.3728    0.0005 C   0  0  0  0  0  4           0  0  0
   -0.3376   -0.0246   -2.5112 C   0  0  0  0  0  4           0  0  0
    1.4499    0.0000    0.0000 C   0  0  0  0  0  4           0  0  0
   -0.3158    0.0019    2.5213 C   0  0  0  0  0  4           0  0  0
   -1.0641    0.9993    3.4005 C   0  0  0  0  0  4           0  0  0
   -0.9157    2.4232    2.8729 C   0  0  0  0  0  4           0  0  0
   -1.6600    3.4208    3.7461 C   0  0  0  0  0  4           0  0  0
  1  7  1  0     0  0
  2 16  2  0     0  0
  3 16  1  0     0  0
  4 17  1  0     0  0
  5  8  1  0     0  0
  5  9  1  0     0  0
  5 18  1  0     0  0
  6  7  1  0     0  0
  6  8  2  0     0  0
  7  9  2  0     0  0
  8 19  1  0     0  0
  9 17  1  0     0  0
 10 12  2  0     0  0
 10 13  1  0     0  0
 10 16  1  0     0  0
 11 14  2  0     0  0
 11 15  1  0     0  0
 11 18  1  0     0  0
 12 14  1  0     0  0
 13 15  2  0     0  0
 19 20  1  0     0  0
 20 21  1  0     0  0
 21 22  1  0     0  0
M  END
> <standard_type>
pIC50

> <# Confs.>
25

> <canonical_smiles>
CCCCC1=NC(Cl)=C(CO)N1CC2=CC=C(C(O)=O)C=C2

> <standard_relation>
=

> <Publication_ID>
nan

> <predicted_activity_value>
5.0

> <actual_activity_value>
4.0

> <Compound>
24

> <standard_units>
nM

> hash
15330608199569978610

$$$$
24_
XXILIB    08252103513D 0   0.00000     0.00000

 22 23  0     1  0            999 V2000
   -3.5606    0.0112   -1.4761 Cl  0  0  0  0  0  1           0  0  0
    4.5880    5.7020    0.4454 O   0  0  0  0  0  2           0  0  0
    2.6423    6.1417   -0.6916 O   0  0  0  0  0  2           0  0  0
   -0.2009   -1.3853   -2.8936 O   0  0  0  0  0  2           0  0  0
   -0.0000    0.0000    0.0000 N   0  0  0  0  0  3           0  0  0
   -2.0832    0.0069    0.7729 N   0  0  0  0  0  3           0  0  0
   -2.0995    0.0012   -0.5972 C   0  0  0  0  0  4           0  0  0
   -0.8115   -0.0000    1.1181 C   0  0  0  0  0  4           0  0  0
   -0.8170   -0.0114   -1.1136 C   0  0  0  0  0  4           0  0  0
    3.0012    3.9964   -0.0241 C   0  0  0  0  0  4           0  0  0
    1.9920    1.3968    0.0000 C   0  0  0  0  0  4           0  0  0
    3.8867    2.9203   -0.0118 C   0  0  0  0  0  4           0  0  0
    1.6214    3.7992   -0.0391 C   0  0  0  0  0  4           0  0  0
    3.3778    1.6214   -0.0000 C   0  0  0  0  0  4           0  0  0
    1.1207    2.4973   -0.0269 C   0  0  0  0  0  4           0  0  0
    3.5293    5.3565   -0.0447 C   0  0  0  0  0  4           0  0  0
   -0.3376   -0.0246   -2.5112 C   0  0  0  0  0  4           0  0  0
    1.4499   -0.0000    0.0000 C   0  0  0  0  0  4           0  0  0
   -0.3158    0.0019    2.5213 C   0  0  0  0  0  4           0  0  0
   -1.0641    0.9993    3.4005 C   0  0  0  0  0  4           0  0  0
   -0.5367    0.9807    4.8320 C   0  0  0  0  0  4           0  0  0
   -1.2796    1.9734    5.7120 C   0  0  0  0  0  4           0  0  0
  1  7  1  0     0  0
  2 16  2  0     0  0
  3 16  1  0     0  0
  4 17  1  0     0  0
  5  8  1  0     0  0
  5  9  1  0     0  0
  5 18  1  0     0  0
  6  7  1  0     0  0
  6  8  2  0     0  0
  7  9  2  0     0  0
  8 19  1  0     0  0
  9 17  1  0     0  0
 10 12  2  0     0  0
 10 13  1  0     0  0
 10 16  1  0     0  0
 11 14  2  0     0  0
 11 15  1  0     0  0
 11 18  1  0     0  0
 12 14  1  0     0  0
 13 15  2  0     0  0
 19 20  1  0     0  0
 20 21  1  0     0  0
 21 22  1  0     0  0
M  END
> <standard_type>
pIC50

> <# Confs.>
25

> <canonical_smiles>
CCCCC1=NC(Cl)=C(CO)N1CC2=CC=C(C(O)=O)C=C2

> <standard_relation>
=

> <Publication_ID>
nan

> <predicted_activity_value>
5.0

> <actual_activity_value>
4.0

> <Compound>
24

> <standard_units>
nM

> hash
15330608199569978610

$$$$
24_
XXILIB    08252103513D 0   0.00000     0.00000

 22 23  0     1  0            999 V2000
   -3.5606    0.0112   -1.4761 Cl  0  0  0  0  0  1           0  0  0
    2.9761    6.3127   -0.5546 O   0  0  0  0  0  2           0  0  0
    4.7204    5.3543    0.5902 O   0  0  0  0  0  2           0  0  0
   -0.2009   -1.3853   -2.8936 O   0  0  0  0  0  2           0  0  0
    0.0000    0.0000    0.0000 N   0  0  0  0  0  3           0  0  0
   -2.0832    0.0069    0.7729 N   0  0  0  0  0  3           0  0  0
   -2.0995    0.0012   -0.5972 C   0  0  0  0  0  4           0  0  0
   -0.8115    0.0000    1.1181 C   0  0  0  0  0  4           0  0  0
   -0.8170   -0.0114   -1.1136 C   0  0  0  0  0  4           0  0  0
    3.0012    3.9964   -0.0241 C   0  0  0  0  0  4           0  0  0
    1.9920    1.3968    0.0000 C   0  0  0  0  0  4           0  0  0
    3.8867    2.9203   -0.0118 C   0  0  0  0  0  4           0  0  0
    1.6214    3.7992   -0.0391 C   0  0  0  0  0  4           0  0  0
    3.3778    1.6214   -0.0000 C   0  0  0  0  0  4           0  0  0
    1.1207    2.4973   -0.0269 C   0  0  0  0  0  4           0  0  0
    3.5293    5.3565   -0.0447 C   0  0  0  0  0  4           0  0  0
   -0.3376   -0.0246   -2.5112 C   0  0  0  0  0  4           0  0  0
    1.4499   -0.0000    0.0000 C   0  0  0  0  0  4           0  0  0
   -0.3158    0.0019    2.5213 C   0  0  0  0  0  4           0  0  0
   -0.1206   -1.4082    3.0704 C   0  0  0  0  0  4           0  0  0
   -1.4290   -2.1928    3.0603 C   0  0  0  0  0  4           0  0  0
   -1.2393   -3.5989    3.6068 C   0  0  0  0  0  4           0  0  0
  1  7  1  0     0  0
  2 16  2  0     0  0
  3 16  1  0     0  0
  4 17  1  0     0  0
  5  8  1  0     0  0
  5  9  1  0     0  0
  5 18  1  0     0  0
  6  7  1  0     0  0
  6  8  2  0     0  0
  7  9  2  0     0  0
  8 19  1  0     0  0
  9 17  1  0     0  0
 10 12  2  0     0  0
 10 13  1  0     0  0
 10 16  1  0     0  0
 11 14  2  0     0  0
 11 15  1  0     0  0
 11 18  1  0     0  0
 12 14  1  0     0  0
 13 15  2  0     0  0
 19 20  1  0     0  0
 20 21  1  0     0  0
 21 22  1  0     0  0
M  END
> <standard_type>
pIC50

> <# Confs.>
25

> <canonical_smiles>
CCCCC1=NC(Cl)=C(CO)N1CC2=CC=C(C(O)=O)C=C2

> <standard_relation>
=

> <Publication_ID>
nan

> <predicted_activity_value>
5.0

> <actual_activity_value>
4.0

> <Compound>
24

> <standard_units>
nM

> hash
15330608199569978610

$$$$
24_
XXILIB    08252103513D 0   0.00000     0.00000

 22 23  0     1  0            999 V2000
   -3.5606    0.0112   -1.4761 Cl  0  0  0  0  0  1           0  0  0
    2.9761   -6.3127    0.5546 O   0  0  0  0  0  2           0  0  0
    4.7204   -5.3543   -0.5902 O   0  0  0  0  0  2           0  0  0
   -0.2030    1.3286   -2.9199 O   0  0  0  0  0  2           0  0  0
    0.0000   -0.0000    0.0000 N   0  0  0  0  0  3           0  0  0
   -2.0832    0.0069    0.7729 N   0  0  0  0  0  3           0  0  0
   -2.0995    0.0012   -0.5972 C   0  0  0  0  0  4           0  0  0
   -0.8115    0.0000    1.1181 C   0  0  0  0  0  4           0  0  0
   -0.8170   -0.0114   -1.1136 C   0  0  0  0  0  4           0  0  0
    3.0012   -3.9964    0.0241 C   0  0  0  0  0  4           0  0  0
    1.9920   -1.3968    0.0000 C   0  0  0  0  0  4           0  0  0
    3.8867   -2.9203    0.0118 C   0  0  0  0  0  4           0  0  0
    1.6214   -3.7992    0.0391 C   0  0  0  0  0  4           0  0  0
    3.3778   -1.6214    0.0000 C   0  0  0  0  0  4           0  0  0
    1.1207   -2.4973    0.0269 C   0  0  0  0  0  4           0  0  0
    3.5293   -5.3565    0.0447 C   0  0  0  0  0  4           0  0  0
   -0.3376   -0.0246   -2.5112 C   0  0  0  0  0  4           0  0  0
    1.4499    0.0000   -0.0000 C   0  0  0  0  0  4           0  0  0
   -0.3158    0.0019    2.5213 C   0  0  0  0  0  4           0  0  0
   -1.0617   -0.9959    3.4023 C   0  0  0  0  0  4           0  0  0
   -0.5343   -0.9734    4.8337 C   0  0  0  0  0  4           0  0  0
   -1.2748   -1.9663    5.7155 C   0  0  0  0  0  4           0  0  0
  1  7  1  0     0  0
  2 16  2  0     0  0
  3 16  1  0     0  0
  4 17  1  0     0  0
  5  8  1  0     0  0
  5  9  1  0     0  0
  5 18  1  0     0  0
  6  7  1  0     0  0
  6  8  2  0     0  0
  7  9  2  0     0  0
  8 19  1  0     0  0
  9 17  1  0     0  0
 10 12  2  0     0  0
 10 13  1  0     0  0
 10 16  1  0     0  0
 11 14  2  0     0  0
 11 15  1  0     0  0
 11 18  1  0     0  0
 12 14  1  0     0  0
 13 15  2  0     0  0
 19 20  1  0     0  0
 20 21  1  0     0  0
 21 22  1  0     0  0
M  END
> <standard_type>
pIC50

> <# Confs.>
25

> <canonical_smiles>
CCCCC1=NC(Cl)=C(CO)N1CC2=CC=C(C(O)=O)C=C2

> <standard_relation>
=

> <Publication_ID>
nan

> <predicted_activity_value>
5.0

> <actual_activity_value>
4.0

> <Compound>
24

> <standard_units>
nM

> hash
15330608199569978610

$$$$
24_
XXILIB    08252103513D 0   0.00000     0.00000

 22 23  0     1  0            999 V2000
   -3.5606    0.0112   -1.4761 Cl  0  0  0  0  0  1           0  0  0
    4.5849    5.6880   -0.5509 O   0  0  0  0  0  2           0  0  0
    2.6493    6.1585    0.5910 O   0  0  0  0  0  2           0  0  0
    0.7050    0.9349   -2.6048 O   0  0  0  0  0  2           0  0  0
    0.0000    0.0000    0.0000 N   0  0  0  0  0  3           0  0  0
   -2.0832    0.0069    0.7729 N   0  0  0  0  0  3           0  0  0
   -2.0995    0.0012   -0.5972 C   0  0  0  0  0  4           0  0  0
   -0.8115    0.0000    1.1181 C   0  0  0  0  0  4           0  0  0
   -0.8170   -0.0114   -1.1136 C   0  0  0  0  0  4           0  0  0
    3.0012    3.9964   -0.0241 C   0  0  0  0  0  4           0  0  0
    1.9920    1.3968    0.0000 C   0  0  0  0  0  4           0  0  0
    3.8867    2.9203   -0.0118 C   0  0  0  0  0  4           0  0  0
    1.6214    3.7992   -0.0391 C   0  0  0  0  0  4           0  0  0
    3.3778    1.6214   -0.0000 C   0  0  0  0  0  4           0  0  0
    1.1207    2.4973   -0.0269 C   0  0  0  0  0  4           0  0  0
    3.5293    5.3565   -0.0447 C   0  0  0  0  0  4           0  0  0
   -0.3376   -0.0246   -2.5112 C   0  0  0  0  0  4           0  0  0
    1.4499   -0.0000    0.0000 C   0  0  0  0  0  4           0  0  0
   -0.3158    0.0019    2.5213 C   0  0  0  0  0  4           0  0  0
   -0.1206   -1.4082    3.0704 C   0  0  0  0  0  4           0  0  0
    0.3875   -1.3773    4.5087 C   0  0  0  0  0  4           0  0  0
    0.5836   -2.7806    5.0601 C   0  0  0  0  0  4           0  0  0
  1  7  1  0     0  0
  2 16  2  0     0  0
  3 16  1  0     0  0
  4 17  1  0     0  0
  5  8  1  0     0  0
  5  9  1  0     0  0
  5 18  1  0     0  0
  6  7  1  0     0  0
  6  8  2  0     0  0
  7  9  2  0     0  0
  8 19  1  0     0  0
  9 17  1  0     0  0
 10 12  2  0     0  0
 10 13  1  0     0  0
 10 16  1  0     0  0
 11 14  2  0     0  0
 11 15  1  0     0  0
 11 18  1  0     0  0
 12 14  1  0     0  0
 13 15  2  0     0  0
 19 20  1  0     0  0
 20 21  1  0     0  0
 21 22  1  0     0  0
M  END
> <standard_type>
pIC50

> <# Confs.>
25

> <canonical_smiles>
CCCCC1=NC(Cl)=C(CO)N1CC2=CC=C(C(O)=O)C=C2

> <standard_relation>
=

> <Publication_ID>
nan

> <predicted_activity_value>
5.0

> <actual_activity_value>
4.0

> <Compound>
24

> <standard_units>
nM

> hash
15330608199569978610

$$$$
24_
XXILIB    08252103513D 0   0.00000     0.00000

 22 23  0     1  0            999 V2000
   -3.5606    0.0112   -1.4761 Cl  0  0  0  0  0  1           0  0  0
    2.9792   -6.3266   -0.4417 O   0  0  0  0  0  2           0  0  0
    4.7134   -5.3375    0.6924 O   0  0  0  0  0  2           0  0  0
   -0.2030    1.3286   -2.9199 O   0  0  0  0  0  2           0  0  0
   -0.0000    0.0000    0.0000 N   0  0  0  0  0  3           0  0  0
   -2.0832    0.0069    0.7729 N   0  0  0  0  0  3           0  0  0
   -2.0995    0.0012   -0.5972 C   0  0  0  0  0  4           0  0  0
   -0.8115    0.0000    1.1181 C   0  0  0  0  0  4           0  0  0
   -0.8170   -0.0114   -1.1136 C   0  0  0  0  0  4           0  0  0
    3.0012   -3.9964    0.0241 C   0  0  0  0  0  4           0  0  0
    1.9920   -1.3968    0.0000 C   0  0  0  0  0  4           0  0  0
    3.8867   -2.9203    0.0118 C   0  0  0  0  0  4           0  0  0
    1.6214   -3.7992    0.0391 C   0  0  0  0  0  4           0  0  0
    3.3778   -1.6214    0.0000 C   0  0  0  0  0  4           0  0  0
    1.1207   -2.4973    0.0269 C   0  0  0  0  0  4           0  0  0
    3.5293   -5.3565    0.0447 C   0  0  0  0  0  4           0  0  0
   -0.3376   -0.0246   -2.5112 C   0  0  0  0  0  4           0  0  0
    1.4499    0.0000   -0.0000 C   0  0  0  0  0  4           0  0  0
   -0.3158    0.0019    2.5213 C   0  0  0  0  0  4           0  0  0
   -0.1240    1.4134    3.0679 C   0  0  0  0  0  4           0  0  0
   -1.4344    2.1947    3.0564 C   0  0  0  0  0  4           0  0  0
   -1.2481    3.6023    3.6003 C   0  0  0  0  0  4           0  0  0
  1  7  1  0     0  0
  2 16  2  0     0  0
  3 16  1  0     0  0
  4 17  1  0     0  0
  5  8  1  0     0  0
  5  9  1  0     0  0
  5 18  1  0     0  0
  6  7  1  0     0  0
  6  8  2  0     0  0
  7  9  2  0     0  0
  8 19  1  0     0  0
  9 17  1  0     0  0
 10 12  2  0     0  0
 10 13  1  0     0  0
 10 16  1  0     0  0
 11 14  2  0     0  0
 11 15  1  0     0  0
 11 18  1  0     0  0
 12 14  1  0     0  0
 13 15  2  0     0  0
 19 20  1  0     0  0
 20 21  1  0     0  0
 21 22  1  0     0  0
M  END
> <standard_type>
pIC50

> <# Confs.>
25

> <canonical_smiles>
CCCCC1=NC(Cl)=C(CO)N1CC2=CC=C(C(O)=O)C=C2

> <standard_relation>
=

> <Publication_ID>
nan

> <predicted_activity_value>
5.0

> <actual_activity_value>
4.0

> <Compound>
24

> <standard_units>
nM

> hash
15330608199569978610

$$$$
24_
XXILIB    08252103513D 0   0.00000     0.00000

 22 23  0     1  0            999 V2000
   -3.5606    0.0112   -1.4761 Cl  0  0  0  0  0  1           0  0  0
    2.9792    6.3266    0.4417 O   0  0  0  0  0  2           0  0  0
    4.7134    5.3375   -0.6924 O   0  0  0  0  0  2           0  0  0
   -0.2009   -1.3853   -2.8936 O   0  0  0  0  0  2           0  0  0
   -0.0000    0.0000    0.0000 N   0  0  0  0  0  3           0  0  0
   -2.0832    0.0069    0.7729 N   0  0  0  0  0  3           0  0  0
   -2.0995    0.0012   -0.5972 C   0  0  0  0  0  4           0  0  0
   -0.8115   -0.0000    1.1181 C   0  0  0  0  0  4           0  0  0
   -0.8170   -0.0114   -1.1136 C   0  0  0  0  0  4           0  0  0
    3.0012    3.9964   -0.0241 C   0  0  0  0  0  4           0  0  0
    1.9920    1.3968    0.0000 C   0  0  0  0  0  4           0  0  0
    3.8867    2.9203   -0.0118 C   0  0  0  0  0  4           0  0  0
    1.6214    3.7992   -0.0391 C   0  0  0  0  0  4           0  0  0
    3.3778    1.6214   -0.0000 C   0  0  0  0  0  4           0  0  0
    1.1207    2.4973   -0.0269 C   0  0  0  0  0  4           0  0  0
    3.5293    5.3565   -0.0447 C   0  0  0  0  0  4           0  0  0
   -0.3376   -0.0246   -2.5112 C   0  0  0  0  0  4           0  0  0
    1.4499   -0.0000    0.0000 C   0  0  0  0  0  4           0  0  0
   -0.3158    0.0019    2.5213 C   0  0  0  0  0  4           0  0  0
   -1.0641    0.9993    3.4005 C   0  0  0  0  0  4           0  0  0
   -0.5367    0.9807    4.8320 C   0  0  0  0  0  4           0  0  0
   -1.2796    1.9734    5.7120 C   0  0  0  0  0  4           0  0  0
  1  7  1  0     0  0
  2 16  2  0     0  0
  3 16  1  0     0  0
  4 17  1  0     0  0
  5  8  1  0     0  0
  5  9  1  0     0  0
  5 18  1  0     0  0
  6  7  1  0     0  0
  6  8  2  0     0  0
  7  9  2  0     0  0
  8 19  1  0     0  0
  9 17  1  0     0  0
 10 12  2  0     0  0
 10 13  1  0     0  0
 10 16  1  0     0  0
 11 14  2  0     0  0
 11 15  1  0     0  0
 11 18  1  0     0  0
 12 14  1  0     0  0
 13 15  2  0     0  0
 19 20  1  0     0  0
 20 21  1  0     0  0
 21 22  1  0     0  0
M  END
> <standard_type>
pIC50

> <# Confs.>
25

> <canonical_smiles>
CCCCC1=NC(Cl)=C(CO)N1CC2=CC=C(C(O)=O)C=C2

> <standard_relation>
=

> <Publication_ID>
nan

> <predicted_activity_value>
5.0

> <actual_activity_value>
4.0

> <Compound>
24

> <standard_units>
nM

> hash
15330608199569978610

$$$$
22_
XXILIB    08252103513D 0   0.00000     0.00000

 31 32  0     1  0            999 V2000
    5.0107   -1.4785    0.0029 Cl  0  0  0  0  0  1           0  0  0
    1.3129   -2.3205   -2.4027 O   0  0  0  0  0  2           0  0  0
   -4.7053    1.6953    5.9845 O   0  0  0  0  0  2           0  0  0
   -2.2675   -2.1750    5.9491 O   0  0  0  0  0  2           0  0  0
    1.8330   -4.3580   -1.4605 O   0  0  0  0  0  2           0  0  0
   -6.2994    1.5136    7.5950 O   0  0  0  0  0  2           0  0  0
    1.4518   -0.0000   -0.0000 N   0  0  0  0  0  3           0  0  0
    3.5355    0.7714   -0.0002 N   0  0  0  0  0  3           0  0  0
   -2.0310    0.0541    5.3477 N   0  0  0  0  0  3           0  0  0
    3.5508   -0.5984   -0.0049 C   0  0  0  0  0  4           0  0  0
    2.2641    1.1177    0.0000 C   0  0  0  0  0  4           0  0  0
    2.2681   -1.1139   -0.0135 C   0  0  0  0  0  4           0  0  0
   -1.5316    0.0009    4.0319 C   0  0  0  0  0  4           0  0  0
   -0.5420    0.0000    1.3966 C   0  0  0  0  0  4           0  0  0
   -1.2943   -1.2075    3.3691 C   0  0  0  0  0  4           0  0  0
   -1.2676    1.2075    3.3765 C   0  0  0  0  0  4           0  0  0
   -0.8001   -1.2055    2.0616 C   0  0  0  0  0  4           0  0  0
   -0.7748    1.2060    2.0696 C   0  0  0  0  0  4           0  0  0
    1.6091   -3.0111   -1.4368 C   0  0  0  0  0  4           0  0  0
   -5.3904    1.0038    6.7266 C   0  0  0  0  0  4           0  0  0
   -2.3670   -0.9753    6.1993 C   0  0  0  0  0  4           0  0  0
    1.7008   -4.9810   -2.7425 C   0  0  0  0  0  4           0  0  0
    0.0000    0.0000    0.0000 C   0  0  0  0  0  4           0  0  0
    1.7702    2.5201    0.0095 C   0  0  0  0  0  4           0  0  0
    1.7882   -2.5191   -0.0232 C   0  0  0  0  0  4           0  0  0
   -5.3156   -0.4952    6.7842 C   0  0  0  0  0  4           0  0  0
   -2.8701   -0.4868    7.5388 C   0  0  0  0  0  4           0  0  0
    2.5114    3.4050   -0.9886 C   0  0  0  0  0  4           0  0  0
   -4.2908   -0.9632    7.8082 C   0  0  0  0  0  4           0  0  0
    2.3981    2.9479   -2.4436 C   0  0  0  0  0  4           0  0  0
    3.1580    3.8724   -3.3804 C   0  0  0  0  0  4           0  0  0
  1 10  1  0     0  0
  2 19  2  0     0  0
  3 20  2  0     0  0
  4 21  2  0     0  0
  5 19  1  0     0  0
  5 22  1  0     0  0
  6 20  1  0     0  0
  7 11  1  0     0  0
  7 12  1  0     0  0
  7 23  1  0     0  0
  8 10  1  0     0  0
  8 11  2  0     0  0
  9 13  1  0     0  0
  9 21  1  0     0  0
 10 12  2  0     0  0
 11 24  1  0     0  0
 12 25  1  0     0  0
 13 15  2  0     0  0
 13 16  1  0     0  0
 14 17  2  0     0  0
 14 18  1  0     0  0
 14 23  1  0     0  0
 15 17  1  0     0  0
 16 18  2  0     0  0
 19 25  1  0     0  0
 20 26  1  0     0  0
 21 27  1  0     0  0
 24 28  1  0     0  0
 26 29  1  0     0  0
 27 29  1  0     0  0
 28 30  1  0     0  0
 30 31  1  0     0  0
M  END
> <standard_type>
pIC50

> <# Confs.>
25

> <canonical_smiles>
CCCCC1=NC(Cl)=C(CC(OC)=O)N1CC2=CC=C(NC(CCCC(O)=O)=O)C=C2

> <standard_relation>
=

> <Publication_ID>
nan

> <predicted_activity_value>
5.0

> <actual_activity_value>
4.494850021680094

> <Compound>
22

> <standard_units>
nM

> hash
1317428753005583636

$$$$
22_
XXILIB    08252103513D 0   0.00000     0.00000

 31 32  0     1  0            999 V2000
    5.0107   -1.4785    0.0029 Cl  0  0  0  0  0  1           0  0  0
    1.3129   -2.3205   -2.4027 O   0  0  0  0  0  2           0  0  0
   -5.8922    0.5157    7.8530 O   0  0  0  0  0  2           0  0  0
   -2.2675   -2.1750    5.9491 O   0  0  0  0  0  2           0  0  0
    1.8330   -4.3580   -1.4605 O   0  0  0  0  0  2           0  0  0
   -6.5400   -0.4214    5.8858 O   0  0  0  0  0  2           0  0  0
    1.4518   -0.0000   -0.0000 N   0  0  0  0  0  3           0  0  0
    3.5355    0.7714   -0.0002 N   0  0  0  0  0  3           0  0  0
   -2.0310    0.0541    5.3477 N   0  0  0  0  0  3           0  0  0
    3.5508   -0.5984   -0.0049 C   0  0  0  0  0  4           0  0  0
    2.2641    1.1177    0.0000 C   0  0  0  0  0  4           0  0  0
    2.2681   -1.1139   -0.0135 C   0  0  0  0  0  4           0  0  0
   -1.5316    0.0009    4.0319 C   0  0  0  0  0  4           0  0  0
   -0.5420    0.0000    1.3966 C   0  0  0  0  0  4           0  0  0
   -1.2943   -1.2075    3.3691 C   0  0  0  0  0  4           0  0  0
   -1.2676    1.2075    3.3765 C   0  0  0  0  0  4           0  0  0
   -0.8001   -1.2055    2.0616 C   0  0  0  0  0  4           0  0  0
   -0.7748    1.2060    2.0696 C   0  0  0  0  0  4           0  0  0
    1.6091   -3.0111   -1.4368 C   0  0  0  0  0  4           0  0  0
   -5.8711   -0.4214    7.0659 C   0  0  0  0  0  4           0  0  0
   -2.3670   -0.9753    6.1993 C   0  0  0  0  0  4           0  0  0
    1.7008   -4.9810   -2.7425 C   0  0  0  0  0  4           0  0  0
    0.0000    0.0000    0.0000 C   0  0  0  0  0  4           0  0  0
    1.7702    2.5201    0.0095 C   0  0  0  0  0  4           0  0  0
    1.7882   -2.5191   -0.0232 C   0  0  0  0  0  4           0  0  0
   -5.1125   -1.6967    7.2987 C   0  0  0  0  0  4           0  0  0
   -2.8701   -0.4868    7.5388 C   0  0  0  0  0  4           0  0  0
    2.5114    3.4050   -0.9886 C   0  0  0  0  0  4           0  0  0
   -3.8708   -1.4597    8.1470 C   0  0  0  0  0  4           0  0  0
    2.3981    2.9479   -2.4436 C   0  0  0  0  0  4           0  0  0
    3.1580    3.8724   -3.3804 C   0  0  0  0  0  4           0  0  0
  1 10  1  0     0  0
  2 19  2  0     0  0
  3 20  2  0     0  0
  4 21  2  0     0  0
  5 19  1  0     0  0
  5 22  1  0     0  0
  6 20  1  0     0  0
  7 11  1  0     0  0
  7 12  1  0     0  0
  7 23  1  0     0  0
  8 10  1  0     0  0
  8 11  2  0     0  0
  9 13  1  0     0  0
  9 21  1  0     0  0
 10 12  2  0     0  0
 11 24  1  0     0  0
 12 25  1  0     0  0
 13 15  2  0     0  0
 13 16  1  0     0  0
 14 17  2  0     0  0
 14 18  1  0     0  0
 14 23  1  0     0  0
 15 17  1  0     0  0
 16 18  2  0     0  0
 19 25  1  0     0  0
 20 26  1  0     0  0
 21 27  1  0     0  0
 24 28  1  0     0  0
 26 29  1  0     0  0
 27 29  1  0     0  0
 28 30  1  0     0  0
 30 31  1  0     0  0
M  END
> <standard_type>
pIC50

> <# Confs.>
25

> <canonical_smiles>
CCCCC1=NC(Cl)=C(CC(OC)=O)N1CC2=CC=C(NC(CCCC(O)=O)=O)C=C2

> <standard_relation>
=

> <Publication_ID>
nan

> <predicted_activity_value>
5.0

> <actual_activity_value>
4.494850021680094

> <Compound>
22

> <standard_units>
nM

> hash
1317428753005583636

$$$$
22_
XXILIB    08252103513D 0   0.00000     0.00000

 31 32  0     1  0            999 V2000
    5.0107   -1.4785    0.0029 Cl  0  0  0  0  0  1           0  0  0
    1.8226   -2.3628   -2.4525 O   0  0  0  0  0  2           0  0  0
   -4.7053    1.6953    5.9845 O   0  0  0  0  0  2           0  0  0
   -2.2675   -2.1750    5.9491 O   0  0  0  0  0  2           0  0  0
    1.1684   -4.3029   -1.3955 O   0  0  0  0  0  2           0  0  0
   -6.2994    1.5136    7.5950 O   0  0  0  0  0  2           0  0  0
    1.4518   -0.0000   -0.0000 N   0  0  0  0  0  3           0  0  0
    3.5355    0.7714   -0.0002 N   0  0  0  0  0  3           0  0  0
   -2.0310    0.0541    5.3477 N   0  0  0  0  0  3           0  0  0
    3.5508   -0.5984   -0.0049 C   0  0  0  0  0  4           0  0  0
    2.2641    1.1177    0.0000 C   0  0  0  0  0  4           0  0  0
    2.2681   -1.1139   -0.0135 C   0  0  0  0  0  4           0  0  0
   -1.5316    0.0009    4.0319 C   0  0  0  0  0  4           0  0  0
   -0.5420    0.0000    1.3966 C   0  0  0  0  0  4           0  0  0
   -1.2943   -1.2075    3.3691 C   0  0  0  0  0  4           0  0  0
   -1.2676    1.2075    3.3765 C   0  0  0  0  0  4           0  0  0
   -0.8001   -1.2055    2.0616 C   0  0  0  0  0  4           0  0  0
   -0.7748    1.2060    2.0696 C   0  0  0  0  0  4           0  0  0
    1.6091   -3.0111   -1.4368 C   0  0  0  0  0  4           0  0  0
   -5.3904    1.0038    6.7266 C   0  0  0  0  0  4           0  0  0
   -2.3670   -0.9753    6.1993 C   0  0  0  0  0  4           0  0  0
    0.9484   -4.9188   -2.6689 C   0  0  0  0  0  4           0  0  0
    0.0000    0.0000    0.0000 C   0  0  0  0  0  4           0  0  0
    1.7702    2.5201    0.0095 C   0  0  0  0  0  4           0  0  0
    1.7882   -2.5191   -0.0232 C   0  0  0  0  0  4           0  0  0
   -5.3156   -0.4952    6.7842 C   0  0  0  0  0  4           0  0  0
   -2.8701   -0.4868    7.5388 C   0  0  0  0  0  4           0  0  0
    2.5114    3.4050   -0.9886 C   0  0  0  0  0  4           0  0  0
   -4.2908   -0.9632    7.8082 C   0  0  0  0  0  4           0  0  0
    2.0385    4.8591   -1.0160 C   0  0  0  0  0  4           0  0  0
    2.8177    5.6809   -2.0296 C   0  0  0  0  0  4           0  0  0
  1 10  1  0     0  0
  2 19  2  0     0  0
  3 20  2  0     0  0
  4 21  2  0     0  0
  5 19  1  0     0  0
  5 22  1  0     0  0
  6 20  1  0     0  0
  7 11  1  0     0  0
  7 12  1  0     0  0
  7 23  1  0     0  0
  8 10  1  0     0  0
  8 11  2  0     0  0
  9 13  1  0     0  0
  9 21  1  0     0  0
 10 12  2  0     0  0
 11 24  1  0     0  0
 12 25  1  0     0  0
 13 15  2  0     0  0
 13 16  1  0     0  0
 14 17  2  0     0  0
 14 18  1  0     0  0
 14 23  1  0     0  0
 15 17  1  0     0  0
 16 18  2  0     0  0
 19 25  1  0     0  0
 20 26  1  0     0  0
 21 27  1  0     0  0
 24 28  1  0     0  0
 26 29  1  0     0  0
 27 29  1  0     0  0
 28 30  1  0     0  0
 30 31  1  0     0  0
M  END
> <standard_type>
pIC50

> <# Confs.>
25

> <canonical_smiles>
CCCCC1=NC(Cl)=C(CC(OC)=O)N1CC2=CC=C(NC(CCCC(O)=O)=O)C=C2

> <standard_relation>
=

> <Publication_ID>
nan

> <predicted_activity_value>
5.0

> <actual_activity_value>
4.494850021680094

> <Compound>
22

> <standard_units>
nM

> hash
1317428753005583636

$$$$
22_
XXILIB    08252103513D 0   0.00000     0.00000

 31 32  0     1  0            999 V2000
    5.0107    1.4785   -0.0029 Cl  0  0  0  0  0  1           0  0  0
    1.3361    2.3614   -2.3638 O   0  0  0  0  0  2           0  0  0
   -4.7053    1.6953    5.9845 O   0  0  0  0  0  2           0  0  0
   -2.2675   -2.1750    5.9491 O   0  0  0  0  0  2           0  0  0
    1.8465    4.3824   -1.3818 O   0  0  0  0  0  2           0  0  0
   -6.2994    1.5136    7.5950 O   0  0  0  0  0  2           0  0  0
    1.4518    0.0000    0.0000 N   0  0  0  0  0  3           0  0  0
    3.5355   -0.7714    0.0002 N   0  0  0  0  0  3           0  0  0
   -2.0310    0.0541    5.3477 N   0  0  0  0  0  3           0  0  0
    3.5508    0.5984    0.0049 C   0  0  0  0  0  4           0  0  0
    2.2641   -1.1177    0.0000 C   0  0  0  0  0  4           0  0  0
    2.2681    1.1139    0.0135 C   0  0  0  0  0  4           0  0  0
   -1.5316    0.0009    4.0319 C   0  0  0  0  0  4           0  0  0
   -0.5420    0.0000    1.3966 C   0  0  0  0  0  4           0  0  0
   -1.2943   -1.2075    3.3691 C   0  0  0  0  0  4           0  0  0
   -1.2676    1.2075    3.3765 C   0  0  0  0  0  4           0  0  0
   -0.8001   -1.2055    2.0616 C   0  0  0  0  0  4           0  0  0
   -0.7748    1.2060    2.0696 C   0  0  0  0  0  4           0  0  0
    1.6228    3.0353   -1.3835 C   0  0  0  0  0  4           0  0  0
   -5.3904    1.0038    6.7266 C   0  0  0  0  0  4           0  0  0
   -2.3670   -0.9753    6.1993 C   0  0  0  0  0  4           0  0  0
    1.7263    5.0273   -2.6541 C   0  0  0  0  0  4           0  0  0
    0.0000    0.0000    0.0000 C   0  0  0  0  0  4           0  0  0
    1.7702   -2.5201   -0.0095 C   0  0  0  0  0  4           0  0  0
    1.7882    2.5191    0.0232 C   0  0  0  0  0  4           0  0  0
   -5.3156   -0.4952    6.7842 C   0  0  0  0  0  4           0  0  0
   -2.8701   -0.4868    7.5388 C   0  0  0  0  0  4           0  0  0
    2.5239   -3.3959   -1.0062 C   0  0  0  0  0  4           0  0  0
   -4.2908   -0.9632    7.8082 C   0  0  0  0  0  4           0  0  0
    2.4288   -2.9255   -2.4583 C   0  0  0  0  0  4           0  0  0
    3.2004   -3.8416   -3.3938 C   0  0  0  0  0  4           0  0  0
  1 10  1  0     0  0
  2 19  2  0     0  0
  3 20  2  0     0  0
  4 21  2  0     0  0
  5 19  1  0     0  0
  5 22  1  0     0  0
  6 20  1  0     0  0
  7 11  1  0     0  0
  7 12  1  0     0  0
  7 23  1  0     0  0
  8 10  1  0     0  0
  8 11  2  0     0  0
  9 13  1  0     0  0
  9 21  1  0     0  0
 10 12  2  0     0  0
 11 24  1  0     0  0
 12 25  1  0     0  0
 13 15  2  0     0  0
 13 16  1  0     0  0
 14 17  2  0     0  0
 14 18  1  0     0  0
 14 23  1  0     0  0
 15 17  1  0     0  0
 16 18  2  0     0  0
 19 25  1  0     0  0
 20 26  1  0     0  0
 21 27  1  0     0  0
 24 28  1  0     0  0
 26 29  1  0     0  0
 27 29  1  0     0  0
 28 30  1  0     0  0
 30 31  1  0     0  0
M  END
> <standard_type>
pIC50

> <# Confs.>
25

> <canonical_smiles>
CCCCC1=NC(Cl)=C(CC(OC)=O)N1CC2=CC=C(NC(CCCC(O)=O)=O)C=C2

> <standard_relation>
=

> <Publication_ID>
nan

> <predicted_activity_value>
5.0

> <actual_activity_value>
4.494850021680094

> <Compound>
22

> <standard_units>
nM

> hash
1317428753005583636

$$$$
22_
XXILIB    08252103513D 0   0.00000     0.00000

 31 32  0     1  0            999 V2000
    5.0107   -1.4785    0.0029 Cl  0  0  0  0  0  1           0  0  0
    1.3129   -2.3205   -2.4027 O   0  0  0  0  0  2           0  0  0
   -6.9474   -2.3341    8.7259 O   0  0  0  0  0  2           0  0  0
   -2.2675   -2.1750    5.9491 O   0  0  0  0  0  2           0  0  0
    1.8330   -4.3580   -1.4605 O   0  0  0  0  0  2           0  0  0
   -5.7994   -3.9523    7.6162 O   0  0  0  0  0  2           0  0  0
    1.4518   -0.0000   -0.0000 N   0  0  0  0  0  3           0  0  0
    3.5355    0.7714   -0.0002 N   0  0  0  0  0  3           0  0  0
   -2.0310    0.0541    5.3477 N   0  0  0  0  0  3           0  0  0
    3.5508   -0.5984   -0.0049 C   0  0  0  0  0  4           0  0  0
    2.2641    1.1177    0.0000 C   0  0  0  0  0  4           0  0  0
    2.2681   -1.1139   -0.0135 C   0  0  0  0  0  4           0  0  0
   -1.5316    0.0009    4.0319 C   0  0  0  0  0  4           0  0  0
   -0.5420    0.0000    1.3966 C   0  0  0  0  0  4           0  0  0
   -1.2943   -1.2075    3.3691 C   0  0  0  0  0  4           0  0  0
   -1.2676    1.2075    3.3765 C   0  0  0  0  0  4           0  0  0
   -0.8001   -1.2055    2.0616 C   0  0  0  0  0  4           0  0  0
   -0.7748    1.2060    2.0696 C   0  0  0  0  0  4           0  0  0
    1.6091   -3.0111   -1.4368 C   0  0  0  0  0  4           0  0  0
   -6.0528   -2.6644    7.9584 C   0  0  0  0  0  4           0  0  0
   -2.3670   -0.9753    6.1993 C   0  0  0  0  0  4           0  0  0
    1.7008   -4.9810   -2.7425 C   0  0  0  0  0  4           0  0  0
    0.0000    0.0000    0.0000 C   0  0  0  0  0  4           0  0  0
    1.7702    2.5201    0.0095 C   0  0  0  0  0  4           0  0  0
    1.7882   -2.5191   -0.0232 C   0  0  0  0  0  4           0  0  0
   -5.1125   -1.6967    7.2987 C   0  0  0  0  0  4           0  0  0
   -2.8701   -0.4868    7.5388 C   0  0  0  0  0  4           0  0  0
    2.5114    3.4050   -0.9886 C   0  0  0  0  0  4           0  0  0
   -3.8708   -1.4597    8.1470 C   0  0  0  0  0  4           0  0  0
    2.3981    2.9479   -2.4436 C   0  0  0  0  0  4           0  0  0
    3.1580    3.8724   -3.3804 C   0  0  0  0  0  4           0  0  0
  1 10  1  0     0  0
  2 19  2  0     0  0
  3 20  2  0     0  0
  4 21  2  0     0  0
  5 19  1  0     0  0
  5 22  1  0     0  0
  6 20  1  0     0  0
  7 11  1  0     0  0
  7 12  1  0     0  0
  7 23  1  0     0  0
  8 10  1  0     0  0
  8 11  2  0     0  0
  9 13  1  0     0  0
  9 21  1  0     0  0
 10 12  2  0     0  0
 11 24  1  0     0  0
 12 25  1  0     0  0
 13 15  2  0     0  0
 13 16  1  0     0  0
 14 17  2  0     0  0
 14 18  1  0     0  0
 14 23  1  0     0  0
 15 17  1  0     0  0
 16 18  2  0     0  0
 19 25  1  0     0  0
 20 26  1  0     0  0
 21 27  1  0     0  0
 24 28  1  0     0  0
 26 29  1  0     0  0
 27 29  1  0     0  0
 28 30  1  0     0  0
 30 31  1  0     0  0
M  END
> <standard_type>
pIC50

> <# Confs.>
25

> <canonical_smiles>
CCCCC1=NC(Cl)=C(CC(OC)=O)N1CC2=CC=C(NC(CCCC(O)=O)=O)C=C2

> <standard_relation>
=

> <Publication_ID>
nan

> <predicted_activity_value>
5.0

> <actual_activity_value>
4.494850021680094

> <Compound>
22

> <standard_units>
nM

> hash
1317428753005583636

$$$$
22_
XXILIB    08252103513D 0   0.00000     0.00000

 31 32  0     1  0            999 V2000
    5.0107   -1.4785    0.0029 Cl  0  0  0  0  0  1           0  0  0
    1.8226   -2.3628   -2.4525 O   0  0  0  0  0  2           0  0  0
   -5.8922    0.5157    7.8530 O   0  0  0  0  0  2           0  0  0
   -2.2675   -2.1750    5.9491 O   0  0  0  0  0  2           0  0  0
    1.1684   -4.3029   -1.3955 O   0  0  0  0  0  2           0  0  0
   -6.5400   -0.4214    5.8858 O   0  0  0  0  0  2           0  0  0
    1.4518   -0.0000   -0.0000 N   0  0  0  0  0  3           0  0  0
    3.5355    0.7714   -0.0002 N   0  0  0  0  0  3           0  0  0
   -2.0310    0.0541    5.3477 N   0  0  0  0  0  3           0  0  0
    3.5508   -0.5984   -0.0049 C   0  0  0  0  0  4           0  0  0
    2.2641    1.1177    0.0000 C   0  0  0  0  0  4           0  0  0
    2.2681   -1.1139   -0.0135 C   0  0  0  0  0  4           0  0  0
   -1.5316    0.0009    4.0319 C   0  0  0  0  0  4           0  0  0
   -0.5420    0.0000    1.3966 C   0  0  0  0  0  4           0  0  0
   -1.2943   -1.2075    3.3691 C   0  0  0  0  0  4           0  0  0
   -1.2676    1.2075    3.3765 C   0  0  0  0  0  4           0  0  0
   -0.8001   -1.2055    2.0616 C   0  0  0  0  0  4           0  0  0
   -0.7748    1.2060    2.0696 C   0  0  0  0  0  4           0  0  0
    1.6091   -3.0111   -1.4368 C   0  0  0  0  0  4           0  0  0
   -5.8711   -0.4214    7.0659 C   0  0  0  0  0  4           0  0  0
   -2.3670   -0.9753    6.1993 C   0  0  0  0  0  4           0  0  0
    0.9484   -4.9188   -2.6689 C   0  0  0  0  0  4           0  0  0
    0.0000    0.0000    0.0000 C   0  0  0  0  0  4           0  0  0
    1.7702    2.5201    0.0095 C   0  0  0  0  0  4           0  0  0
    1.7882   -2.5191   -0.0232 C   0  0  0  0  0  4           0  0  0
   -5.1125   -1.6967    7.2987 C   0  0  0  0  0  4           0  0  0
   -2.8701   -0.4868    7.5388 C   0  0  0  0  0  4           0  0  0
    2.5114    3.4050   -0.9886 C   0  0  0  0  0  4           0  0  0
   -3.8708   -1.4597    8.1470 C   0  0  0  0  0  4           0  0  0
    2.0385    4.8591   -1.0160 C   0  0  0  0  0  4           0  0  0
    2.8177    5.6809   -2.0296 C   0  0  0  0  0  4           0  0  0
  1 10  1  0     0  0
  2 19  2  0     0  0
  3 20  2  0     0  0
  4 21  2  0     0  0
  5 19  1  0     0  0
  5 22  1  0     0  0
  6 20  1  0     0  0
  7 11  1  0     0  0
  7 12  1  0     0  0
  7 23  1  0     0  0
  8 10  1  0     0  0
  8 11  2  0     0  0
  9 13  1  0     0  0
  9 21  1  0     0  0
 10 12  2  0     0  0
 11 24  1  0     0  0
 12 25  1  0     0  0
 13 15  2  0     0  0
 13 16  1  0     0  0
 14 17  2  0     0  0
 14 18  1  0     0  0
 14 23  1  0     0  0
 15 17  1  0     0  0
 16 18  2  0     0  0
 19 25  1  0     0  0
 20 26  1  0     0  0
 21 27  1  0     0  0
 24 28  1  0     0  0
 26 29  1  0     0  0
 27 29  1  0     0  0
 28 30  1  0     0  0
 30 31  1  0     0  0
M  END
> <standard_type>
pIC50

> <# Confs.>
25

> <canonical_smiles>
CCCCC1=NC(Cl)=C(CC(OC)=O)N1CC2=CC=C(NC(CCCC(O)=O)=O)C=C2

> <standard_relation>
=

> <Publication_ID>
nan

> <predicted_activity_value>
5.0

> <actual_activity_value>
4.494850021680094

> <Compound>
22

> <standard_units>
nM

> hash
1317428753005583636

$$$$
22_
XXILIB    08252103513D 0   0.00000     0.00000

 31 32  0     1  0            999 V2000
    5.0107    1.4785   -0.0029 Cl  0  0  0  0  0  1           0  0  0
    1.3361    2.3614   -2.3638 O   0  0  0  0  0  2           0  0  0
   -5.8922    0.5157    7.8530 O   0  0  0  0  0  2           0  0  0
   -2.2675   -2.1750    5.9491 O   0  0  0  0  0  2           0  0  0
    1.8465    4.3824   -1.3818 O   0  0  0  0  0  2           0  0  0
   -6.5400   -0.4214    5.8858 O   0  0  0  0  0  2           0  0  0
    1.4518    0.0000    0.0000 N   0  0  0  0  0  3           0  0  0
    3.5355   -0.7714    0.0002 N   0  0  0  0  0  3           0  0  0
   -2.0310    0.0541    5.3477 N   0  0  0  0  0  3           0  0  0
    3.5508    0.5984    0.0049 C   0  0  0  0  0  4           0  0  0
    2.2641   -1.1177    0.0000 C   0  0  0  0  0  4           0  0  0
    2.2681    1.1139    0.0135 C   0  0  0  0  0  4           0  0  0
   -1.5316    0.0009    4.0319 C   0  0  0  0  0  4           0  0  0
   -0.5420    0.0000    1.3966 C   0  0  0  0  0  4           0  0  0
   -1.2943   -1.2075    3.3691 C   0  0  0  0  0  4           0  0  0
   -1.2676    1.2075    3.3765 C   0  0  0  0  0  4           0  0  0
   -0.8001   -1.2055    2.0616 C   0  0  0  0  0  4           0  0  0
   -0.7748    1.2060    2.0696 C   0  0  0  0  0  4           0  0  0
    1.6228    3.0353   -1.3835 C   0  0  0  0  0  4           0  0  0
   -5.8711   -0.4214    7.0659 C   0  0  0  0  0  4           0  0  0
   -2.3670   -0.9753    6.1993 C   0  0  0  0  0  4           0  0  0
    1.7263    5.0273   -2.6541 C   0  0  0  0  0  4           0  0  0
    0.0000    0.0000    0.0000 C   0  0  0  0  0  4           0  0  0
    1.7702   -2.5201   -0.0095 C   0  0  0  0  0  4           0  0  0
    1.7882    2.5191    0.0232 C   0  0  0  0  0  4           0  0  0
   -5.1125   -1.6967    7.2987 C   0  0  0  0  0  4           0  0  0
   -2.8701   -0.4868    7.5388 C   0  0  0  0  0  4           0  0  0
    2.5239   -3.3959   -1.0062 C   0  0  0  0  0  4           0  0  0
   -3.8708   -1.4597    8.1470 C   0  0  0  0  0  4           0  0  0
    2.4288   -2.9255   -2.4583 C   0  0  0  0  0  4           0  0  0
    3.2004   -3.8416   -3.3938 C   0  0  0  0  0  4           0  0  0
  1 10  1  0     0  0
  2 19  2  0     0  0
  3 20  2  0     0  0
  4 21  2  0     0  0
  5 19  1  0     0  0
  5 22  1  0     0  0
  6 20  1  0     0  0
  7 11  1  0     0  0
  7 12  1  0     0  0
  7 23  1  0     0  0
  8 10  1  0     0  0
  8 11  2  0     0  0
  9 13  1  0     0  0
  9 21  1  0     0  0
 10 12  2  0     0  0
 11 24  1  0     0  0
 12 25  1  0     0  0
 13 15  2  0     0  0
 13 16  1  0     0  0
 14 17  2  0     0  0
 14 18  1  0     0  0
 14 23  1  0     0  0
 15 17  1  0     0  0
 16 18  2  0     0  0
 19 25  1  0     0  0
 20 26  1  0     0  0
 21 27  1  0     0  0
 24 28  1  0     0  0
 26 29  1  0     0  0
 27 29  1  0     0  0
 28 30  1  0     0  0
 30 31  1  0     0  0
M  END
> <standard_type>
pIC50

> <# Confs.>
25

> <canonical_smiles>
CCCCC1=NC(Cl)=C(CC(OC)=O)N1CC2=CC=C(NC(CCCC(O)=O)=O)C=C2

> <standard_relation>
=

> <Publication_ID>
nan

> <predicted_activity_value>
5.0

> <actual_activity_value>
4.494850021680094

> <Compound>
22

> <standard_units>
nM

> hash
1317428753005583636

$$$$
22_
XXILIB    08252103513D 0   0.00000     0.00000

 31 32  0     1  0            999 V2000
    5.0107   -1.4785    0.0029 Cl  0  0  0  0  0  1           0  0  0
    1.3129   -2.3205   -2.4027 O   0  0  0  0  0  2           0  0  0
   -7.1500   -0.1887    7.4551 O   0  0  0  0  0  2           0  0  0
   -2.2675   -2.1750    5.9491 O   0  0  0  0  0  2           0  0  0
    1.8330   -4.3580   -1.4605 O   0  0  0  0  0  2           0  0  0
   -7.3850   -2.3959    6.9644 O   0  0  0  0  0  2           0  0  0
    1.4518   -0.0000   -0.0000 N   0  0  0  0  0  3           0  0  0
    3.5355    0.7714   -0.0002 N   0  0  0  0  0  3           0  0  0
   -2.0310    0.0541    5.3477 N   0  0  0  0  0  3           0  0  0
    3.5508   -0.5984   -0.0049 C   0  0  0  0  0  4           0  0  0
    2.2641    1.1177    0.0000 C   0  0  0  0  0  4           0  0  0
    2.2681   -1.1139   -0.0135 C   0  0  0  0  0  4           0  0  0
   -1.5316    0.0009    4.0319 C   0  0  0  0  0  4           0  0  0
   -0.5420    0.0000    1.3966 C   0  0  0  0  0  4           0  0  0
   -1.2943   -1.2075    3.3691 C   0  0  0  0  0  4           0  0  0
   -1.2676    1.2075    3.3765 C   0  0  0  0  0  4           0  0  0
   -0.8001   -1.2055    2.0616 C   0  0  0  0  0  4           0  0  0
   -0.7748    1.2060    2.0696 C   0  0  0  0  0  4           0  0  0
    1.6091   -3.0111   -1.4368 C   0  0  0  0  0  4           0  0  0
   -6.6537   -1.2847    7.2295 C   0  0  0  0  0  4           0  0  0
   -2.3670   -0.9753    6.1993 C   0  0  0  0  0  4           0  0  0
    1.7008   -4.9810   -2.7425 C   0  0  0  0  0  4           0  0  0
    0.0000    0.0000    0.0000 C   0  0  0  0  0  4           0  0  0
    1.7702    2.5201    0.0095 C   0  0  0  0  0  4           0  0  0
    1.7882   -2.5191   -0.0232 C   0  0  0  0  0  4           0  0  0
   -5.1757   -1.5517    7.2220 C   0  0  0  0  0  4           0  0  0
   -2.8701   -0.4868    7.5388 C   0  0  0  0  0  4           0  0  0
    2.5114    3.4050   -0.9886 C   0  0  0  0  0  4           0  0  0
   -4.3798   -0.2907    7.5295 C   0  0  0  0  0  4           0  0  0
    2.3981    2.9479   -2.4436 C   0  0  0  0  0  4           0  0  0
    3.1580    3.8724   -3.3804 C   0  0  0  0  0  4           0  0  0
  1 10  1  0     0  0
  2 19  2  0     0  0
  3 20  2  0     0  0
  4 21  2  0     0  0
  5 19  1  0     0  0
  5 22  1  0     0  0
  6 20  1  0     0  0
  7 11  1  0     0  0
  7 12  1  0     0  0
  7 23  1  0     0  0
  8 10  1  0     0  0
  8 11  2  0     0  0
  9 13  1  0     0  0
  9 21  1  0     0  0
 10 12  2  0     0  0
 11 24  1  0     0  0
 12 25  1  0     0  0
 13 15  2  0     0  0
 13 16  1  0     0  0
 14 17  2  0     0  0
 14 18  1  0     0  0
 14 23  1  0     0  0
 15 17  1  0     0  0
 16 18  2  0     0  0
 19 25  1  0     0  0
 20 26  1  0     0  0
 21 27  1  0     0  0
 24 28  1  0     0  0
 26 29  1  0     0  0
 27 29  1  0     0  0
 28 30  1  0     0  0
 30 31  1  0     0  0
M  END
> <standard_type>
pIC50

> <# Confs.>
25

> <canonical_smiles>
CCCCC1=NC(Cl)=C(CC(OC)=O)N1CC2=CC=C(NC(CCCC(O)=O)=O)C=C2

> <standard_relation>
=

> <Publication_ID>
nan

> <predicted_activity_value>
5.0

> <actual_activity_value>
4.494850021680094

> <Compound>
22

> <standard_units>
nM

> hash
1317428753005583636

$$$$
22_
XXILIB    08252103513D 0   0.00000     0.00000

 31 32  0     1  0            999 V2000
    5.0107   -1.4785    0.0029 Cl  0  0  0  0  0  1           0  0  0
    1.3129   -2.3205   -2.4027 O   0  0  0  0  0  2           0  0  0
   -3.9882    2.3707    8.4449 O   0  0  0  0  0  2           0  0  0
   -2.2675   -2.1750    5.9491 O   0  0  0  0  0  2           0  0  0
    1.8330   -4.3580   -1.4605 O   0  0  0  0  0  2           0  0  0
   -4.3175    1.6918   10.5893 O   0  0  0  0  0  2           0  0  0
    1.4518   -0.0000   -0.0000 N   0  0  0  0  0  3           0  0  0
    3.5355    0.7714   -0.0002 N   0  0  0  0  0  3           0  0  0
   -2.0310    0.0541    5.3477 N   0  0  0  0  0  3           0  0  0
    3.5508   -0.5984   -0.0049 C   0  0  0  0  0  4           0  0  0
    2.2641    1.1177    0.0000 C   0  0  0  0  0  4           0  0  0
    2.2681   -1.1139   -0.0135 C   0  0  0  0  0  4           0  0  0
   -1.5316    0.0009    4.0319 C   0  0  0  0  0  4           0  0  0
   -0.5420    0.0000    1.3966 C   0  0  0  0  0  4           0  0  0
   -1.2943   -1.2075    3.3691 C   0  0  0  0  0  4           0  0  0
   -1.2676    1.2075    3.3765 C   0  0  0  0  0  4           0  0  0
   -0.8001   -1.2055    2.0616 C   0  0  0  0  0  4           0  0  0
   -0.7748    1.2060    2.0696 C   0  0  0  0  0  4           0  0  0
    1.6091   -3.0111   -1.4368 C   0  0  0  0  0  4           0  0  0
   -4.3754    1.5282    9.2440 C   0  0  0  0  0  4           0  0  0
   -2.3670   -0.9753    6.1993 C   0  0  0  0  0  4           0  0  0
    1.7008   -4.9810   -2.7425 C   0  0  0  0  0  4           0  0  0
    0.0000    0.0000    0.0000 C   0  0  0  0  0  4           0  0  0
    1.7702    2.5201    0.0095 C   0  0  0  0  0  4           0  0  0
    1.7882   -2.5191   -0.0232 C   0  0  0  0  0  4           0  0  0
   -4.9581    0.2014    8.8490 C   0  0  0  0  0  4           0  0  0
   -2.8701   -0.4868    7.5388 C   0  0  0  0  0  4           0  0  0
    2.5114    3.4050   -0.9886 C   0  0  0  0  0  4           0  0  0
   -4.3798   -0.2907    7.5295 C   0  0  0  0  0  4           0  0  0
    2.3981    2.9479   -2.4436 C   0  0  0  0  0  4           0  0  0
    3.1580    3.8724   -3.3804 C   0  0  0  0  0  4           0  0  0
  1 10  1  0     0  0
  2 19  2  0     0  0
  3 20  2  0     0  0
  4 21  2  0     0  0
  5 19  1  0     0  0
  5 22  1  0     0  0
  6 20  1  0     0  0
  7 11  1  0     0  0
  7 12  1  0     0  0
  7 23  1  0     0  0
  8 10  1  0     0  0
  8 11  2  0     0  0
  9 13  1  0     0  0
  9 21  1  0     0  0
 10 12  2  0     0  0
 11 24  1  0     0  0
 12 25  1  0     0  0
 13 15  2  0     0  0
 13 16  1  0     0  0
 14 17  2  0     0  0
 14 18  1  0     0  0
 14 23  1  0     0  0
 15 17  1  0     0  0
 16 18  2  0     0  0
 19 25  1  0     0  0
 20 26  1  0     0  0
 21 27  1  0     0  0
 24 28  1  0     0  0
 26 29  1  0     0  0
 27 29  1  0     0  0
 28 30  1  0     0  0
 30 31  1  0     0  0
M  END
> <standard_type>
pIC50

> <# Confs.>
25

> <canonical_smiles>
CCCCC1=NC(Cl)=C(CC(OC)=O)N1CC2=CC=C(NC(CCCC(O)=O)=O)C=C2

> <standard_relation>
=

> <Publication_ID>
nan

> <predicted_activity_value>
5.0

> <actual_activity_value>
4.494850021680094

> <Compound>
22

> <standard_units>
nM

> hash
1317428753005583636

$$$$
22_
XXILIB    08252103513D 0   0.00000     0.00000

 31 32  0     1  0            999 V2000
    5.0107   -1.4785    0.0029 Cl  0  0  0  0  0  1           0  0  0
    1.3129   -2.3205   -2.4027 O   0  0  0  0  0  2           0  0  0
   -2.8429   -2.4369   10.0752 O   0  0  0  0  0  2           0  0  0
   -2.2675   -2.1750    5.9491 O   0  0  0  0  0  2           0  0  0
    1.8330   -4.3580   -1.4605 O   0  0  0  0  0  2           0  0  0
   -1.4370   -3.9192    9.0782 O   0  0  0  0  0  2           0  0  0
    1.4518   -0.0000   -0.0000 N   0  0  0  0  0  3           0  0  0
    3.5355    0.7714   -0.0002 N   0  0  0  0  0  3           0  0  0
   -2.0310    0.0541    5.3477 N   0  0  0  0  0  3           0  0  0
    3.5508   -0.5984   -0.0049 C   0  0  0  0  0  4           0  0  0
    2.2641    1.1177    0.0000 C   0  0  0  0  0  4           0  0  0
    2.2681   -1.1139   -0.0135 C   0  0  0  0  0  4           0  0  0
   -1.5316    0.0009    4.0319 C   0  0  0  0  0  4           0  0  0
   -0.5420    0.0000    1.3966 C   0  0  0  0  0  4           0  0  0
   -1.2943   -1.2075    3.3691 C   0  0  0  0  0  4           0  0  0
   -1.2676    1.2075    3.3765 C   0  0  0  0  0  4           0  0  0
   -0.8001   -1.2055    2.0616 C   0  0  0  0  0  4           0  0  0
   -0.7748    1.2060    2.0696 C   0  0  0  0  0  4           0  0  0
    1.6091   -3.0111   -1.4368 C   0  0  0  0  0  4           0  0  0
   -1.8519   -2.6671    9.3945 C   0  0  0  0  0  4           0  0  0
   -2.3670   -0.9753    6.1993 C   0  0  0  0  0  4           0  0  0
    1.7008   -4.9810   -2.7425 C   0  0  0  0  0  4           0  0  0
    0.0000    0.0000    0.0000 C   0  0  0  0  0  4           0  0  0
    1.7702    2.5201    0.0095 C   0  0  0  0  0  4           0  0  0
    1.7882   -2.5191   -0.0232 C   0  0  0  0  0  4           0  0  0
   -0.9589   -1.6025    8.8244 C   0  0  0  0  0  4           0  0  0
   -2.8701   -0.4868    7.5388 C   0  0  0  0  0  4           0  0  0
    2.5114    3.4050   -0.9886 C   0  0  0  0  0  4           0  0  0
   -1.7314   -0.3226    8.5358 C   0  0  0  0  0  4           0  0  0
    2.3981    2.9479   -2.4436 C   0  0  0  0  0  4           0  0  0
    3.1580    3.8724   -3.3804 C   0  0  0  0  0  4           0  0  0
  1 10  1  0     0  0
  2 19  2  0     0  0
  3 20  2  0     0  0
  4 21  2  0     0  0
  5 19  1  0     0  0
  5 22  1  0     0  0
  6 20  1  0     0  0
  7 11  1  0     0  0
  7 12  1  0     0  0
  7 23  1  0     0  0
  8 10  1  0     0  0
  8 11  2  0     0  0
  9 13  1  0     0  0
  9 21  1  0     0  0
 10 12  2  0     0  0
 11 24  1  0     0  0
 12 25  1  0     0  0
 13 15  2  0     0  0
 13 16  1  0     0  0
 14 17  2  0     0  0
 14 18  1  0     0  0
 14 23  1  0     0  0
 15 17  1  0     0  0
 16 18  2  0     0  0
 19 25  1  0     0  0
 20 26  1  0     0  0
 21 27  1  0     0  0
 24 28  1  0     0  0
 26 29  1  0     0  0
 27 29  1  0     0  0
 28 30  1  0     0  0
 30 31  1  0     0  0
M  END
> <standard_type>
pIC50

> <# Confs.>
25

> <canonical_smiles>
CCCCC1=NC(Cl)=C(CC(OC)=O)N1CC2=CC=C(NC(CCCC(O)=O)=O)C=C2

> <standard_relation>
=

> <Publication_ID>
nan

> <predicted_activity_value>
5.0

> <actual_activity_value>
4.494850021680094

> <Compound>
22

> <standard_units>
nM

> hash
1317428753005583636

$$$$
22_
XXILIB    08252103513D 0   0.00000     0.00000

 31 32  0     1  0            999 V2000
    5.0107   -1.4785    0.0029 Cl  0  0  0  0  0  1           0  0  0
    1.3129   -2.3205   -2.4027 O   0  0  0  0  0  2           0  0  0
    0.3906   -0.2796   10.3205 O   0  0  0  0  0  2           0  0  0
   -2.2675   -2.1750    5.9491 O   0  0  0  0  0  2           0  0  0
    1.8330   -4.3580   -1.4605 O   0  0  0  0  0  2           0  0  0
    0.8541   -2.4923   10.0820 O   0  0  0  0  0  2           0  0  0
    1.4518   -0.0000   -0.0000 N   0  0  0  0  0  3           0  0  0
    3.5355    0.7714   -0.0002 N   0  0  0  0  0  3           0  0  0
   -2.0310    0.0541    5.3477 N   0  0  0  0  0  3           0  0  0
    3.5508   -0.5984   -0.0049 C   0  0  0  0  0  4           0  0  0
    2.2641    1.1177    0.0000 C   0  0  0  0  0  4           0  0  0
    2.2681   -1.1139   -0.0135 C   0  0  0  0  0  4           0  0  0
   -1.5316    0.0009    4.0319 C   0  0  0  0  0  4           0  0  0
   -0.5420    0.0000    1.3966 C   0  0  0  0  0  4           0  0  0
   -1.2943   -1.2075    3.3691 C   0  0  0  0  0  4           0  0  0
   -1.2676    1.2075    3.3765 C   0  0  0  0  0  4           0  0  0
   -0.8001   -1.2055    2.0616 C   0  0  0  0  0  4           0  0  0
   -0.7748    1.2060    2.0696 C   0  0  0  0  0  4           0  0  0
    1.6091   -3.0111   -1.4368 C   0  0  0  0  0  4           0  0  0
    0.1464   -1.3666    9.8135 C   0  0  0  0  0  4           0  0  0
   -2.3670   -0.9753    6.1993 C   0  0  0  0  0  4           0  0  0
    1.7008   -4.9810   -2.7425 C   0  0  0  0  0  4           0  0  0
    0.0000    0.0000    0.0000 C   0  0  0  0  0  4           0  0  0
    1.7702    2.5201    0.0095 C   0  0  0  0  0  4           0  0  0
    1.7882   -2.5191   -0.0232 C   0  0  0  0  0  4           0  0  0
   -0.9589   -1.6025    8.8244 C   0  0  0  0  0  4           0  0  0
   -2.8701   -0.4868    7.5388 C   0  0  0  0  0  4           0  0  0
    2.5114    3.4050   -0.9886 C   0  0  0  0  0  4           0  0  0
   -1.7314   -0.3226    8.5358 C   0  0  0  0  0  4           0  0  0
    2.3981    2.9479   -2.4436 C   0  0  0  0  0  4           0  0  0
    3.1580    3.8724   -3.3804 C   0  0  0  0  0  4           0  0  0
  1 10  1  0     0  0
  2 19  2  0     0  0
  3 20  2  0     0  0
  4 21  2  0     0  0
  5 19  1  0     0  0
  5 22  1  0     0  0
  6 20  1  0     0  0
  7 11  1  0     0  0
  7 12  1  0     0  0
  7 23  1  0     0  0
  8 10  1  0     0  0
  8 11  2  0     0  0
  9 13  1  0     0  0
  9 21  1  0     0  0
 10 12  2  0     0  0
 11 24  1  0     0  0
 12 25  1  0     0  0
 13 15  2  0     0  0
 13 16  1  0     0  0
 14 17  2  0     0  0
 14 18  1  0     0  0
 14 23  1  0     0  0
 15 17  1  0     0  0
 16 18  2  0     0  0
 19 25  1  0     0  0
 20 26  1  0     0  0
 21 27  1  0     0  0
 24 28  1  0     0  0
 26 29  1  0     0  0
 27 29  1  0     0  0
 28 30  1  0     0  0
 30 31  1  0     0  0
M  END
> <standard_type>
pIC50

> <# Confs.>
25

> <canonical_smiles>
CCCCC1=NC(Cl)=C(CC(OC)=O)N1CC2=CC=C(NC(CCCC(O)=O)=O)C=C2

> <standard_relation>
=

> <Publication_ID>
nan

> <predicted_activity_value>
5.0

> <actual_activity_value>
4.494850021680094

> <Compound>
22

> <standard_units>
nM

> hash
1317428753005583636

$$$$
22_
XXILIB    08252103513D 0   0.00000     0.00000

 31 32  0     1  0            999 V2000
    5.0107   -1.4785    0.0029 Cl  0  0  0  0  0  1           0  0  0
    1.3129   -2.3205   -2.4027 O   0  0  0  0  0  2           0  0  0
   -4.9875    0.8278    9.6206 O   0  0  0  0  0  2           0  0  0
   -2.2675   -2.1750    5.9491 O   0  0  0  0  0  2           0  0  0
    1.8330   -4.3580   -1.4605 O   0  0  0  0  0  2           0  0  0
   -6.1235   -1.1380    9.7334 O   0  0  0  0  0  2           0  0  0
    1.4518   -0.0000   -0.0000 N   0  0  0  0  0  3           0  0  0
    3.5355    0.7714   -0.0002 N   0  0  0  0  0  3           0  0  0
   -2.0310    0.0541    5.3477 N   0  0  0  0  0  3           0  0  0
    3.5508   -0.5984   -0.0049 C   0  0  0  0  0  4           0  0  0
    2.2641    1.1177    0.0000 C   0  0  0  0  0  4           0  0  0
    2.2681   -1.1139   -0.0135 C   0  0  0  0  0  4           0  0  0
   -1.5316    0.0009    4.0319 C   0  0  0  0  0  4           0  0  0
   -0.5420    0.0000    1.3966 C   0  0  0  0  0  4           0  0  0
   -1.2943   -1.2075    3.3691 C   0  0  0  0  0  4           0  0  0
   -1.2676    1.2075    3.3765 C   0  0  0  0  0  4           0  0  0
   -0.8001   -1.2055    2.0616 C   0  0  0  0  0  4           0  0  0
   -0.7748    1.2060    2.0696 C   0  0  0  0  0  4           0  0  0
    1.6091   -3.0111   -1.4368 C   0  0  0  0  0  4           0  0  0
   -4.9903   -0.3927    9.7136 C   0  0  0  0  0  4           0  0  0
   -2.3670   -0.9753    6.1993 C   0  0  0  0  0  4           0  0  0
    1.7008   -4.9810   -2.7425 C   0  0  0  0  0  4           0  0  0
    0.0000    0.0000    0.0000 C   0  0  0  0  0  4           0  0  0
    1.7702    2.5201    0.0095 C   0  0  0  0  0  4           0  0  0
    1.7882   -2.5191   -0.0232 C   0  0  0  0  0  4           0  0  0
   -3.7479   -1.2292    9.8253 C   0  0  0  0  0  4           0  0  0
   -2.8701   -0.4868    7.5388 C   0  0  0  0  0  4           0  0  0
    2.5114    3.4050   -0.9886 C   0  0  0  0  0  4           0  0  0
   -3.2323   -1.6473    8.4552 C   0  0  0  0  0  4           0  0  0
    2.3981    2.9479   -2.4436 C   0  0  0  0  0  4           0  0  0
    3.1580    3.8724   -3.3804 C   0  0  0  0  0  4           0  0  0
  1 10  1  0     0  0
  2 19  2  0     0  0
  3 20  2  0     0  0
  4 21  2  0     0  0
  5 19  1  0     0  0
  5 22  1  0     0  0
  6 20  1  0     0  0
  7 11  1  0     0  0
  7 12  1  0     0  0
  7 23  1  0     0  0
  8 10  1  0     0  0
  8 11  2  0     0  0
  9 13  1  0     0  0
  9 21  1  0     0  0
 10 12  2  0     0  0
 11 24  1  0     0  0
 12 25  1  0     0  0
 13 15  2  0     0  0
 13 16  1  0     0  0
 14 17  2  0     0  0
 14 18  1  0     0  0
 14 23  1  0     0  0
 15 17  1  0     0  0
 16 18  2  0     0  0
 19 25  1  0     0  0
 20 26  1  0     0  0
 21 27  1  0     0  0
 24 28  1  0     0  0
 26 29  1  0     0  0
 27 29  1  0     0  0
 28 30  1  0     0  0
 30 31  1  0     0  0
M  END
> <standard_type>
pIC50

> <# Confs.>
25

> <canonical_smiles>
CCCCC1=NC(Cl)=C(CC(OC)=O)N1CC2=CC=C(NC(CCCC(O)=O)=O)C=C2

> <standard_relation>
=

> <Publication_ID>
nan

> <predicted_activity_value>
5.0

> <actual_activity_value>
4.494850021680094

> <Compound>
22

> <standard_units>
nM

> hash
1317428753005583636

$$$$
22_
XXILIB    08252103513D 0   0.00000     0.00000

 31 32  0     1  0            999 V2000
    5.0107   -1.4785    0.0029 Cl  0  0  0  0  0  1           0  0  0
    1.3129   -2.3205   -2.4027 O   0  0  0  0  0  2           0  0  0
   -2.6422    0.7996   10.5118 O   0  0  0  0  0  2           0  0  0
   -2.2675   -2.1750    5.9491 O   0  0  0  0  0  2           0  0  0
    1.8330   -4.3580   -1.4605 O   0  0  0  0  0  2           0  0  0
   -1.9008   -1.1899   11.3244 O   0  0  0  0  0  2           0  0  0
    1.4518   -0.0000   -0.0000 N   0  0  0  0  0  3           0  0  0
    3.5355    0.7714   -0.0002 N   0  0  0  0  0  3           0  0  0
   -2.0310    0.0541    5.3477 N   0  0  0  0  0  3           0  0  0
    3.5508   -0.5984   -0.0049 C   0  0  0  0  0  4           0  0  0
    2.2641    1.1177    0.0000 C   0  0  0  0  0  4           0  0  0
    2.2681   -1.1139   -0.0135 C   0  0  0  0  0  4           0  0  0
   -1.5316    0.0009    4.0319 C   0  0  0  0  0  4           0  0  0
   -0.5420    0.0000    1.3966 C   0  0  0  0  0  4           0  0  0
   -1.2943   -1.2075    3.3691 C   0  0  0  0  0  4           0  0  0
   -1.2676    1.2075    3.3765 C   0  0  0  0  0  4           0  0  0
   -0.8001   -1.2055    2.0616 C   0  0  0  0  0  4           0  0  0
   -0.7748    1.2060    2.0696 C   0  0  0  0  0  4           0  0  0
    1.6091   -3.0111   -1.4368 C   0  0  0  0  0  4           0  0  0
   -2.7275   -0.4199   10.5734 C   0  0  0  0  0  4           0  0  0
   -2.3670   -0.9753    6.1993 C   0  0  0  0  0  4           0  0  0
    1.7008   -4.9810   -2.7425 C   0  0  0  0  0  4           0  0  0
    0.0000    0.0000    0.0000 C   0  0  0  0  0  4           0  0  0
    1.7702    2.5201    0.0095 C   0  0  0  0  0  4           0  0  0
    1.7882   -2.5191   -0.0232 C   0  0  0  0  0  4           0  0  0
   -3.7479   -1.2292    9.8253 C   0  0  0  0  0  4           0  0  0
   -2.8701   -0.4868    7.5388 C   0  0  0  0  0  4           0  0  0
    2.5114    3.4050   -0.9886 C   0  0  0  0  0  4           0  0  0
   -3.2323   -1.6473    8.4552 C   0  0  0  0  0  4           0  0  0
    2.3981    2.9479   -2.4436 C   0  0  0  0  0  4           0  0  0
    3.1580    3.8724   -3.3804 C   0  0  0  0  0  4           0  0  0
  1 10  1  0     0  0
  2 19  2  0     0  0
  3 20  2  0     0  0
  4 21  2  0     0  0
  5 19  1  0     0  0
  5 22  1  0     0  0
  6 20  1  0     0  0
  7 11  1  0     0  0
  7 12  1  0     0  0
  7 23  1  0     0  0
  8 10  1  0     0  0
  8 11  2  0     0  0
  9 13  1  0     0  0
  9 21  1  0     0  0
 10 12  2  0     0  0
 11 24  1  0     0  0
 12 25  1  0     0  0
 13 15  2  0     0  0
 13 16  1  0     0  0
 14 17  2  0     0  0
 14 18  1  0     0  0
 14 23  1  0     0  0
 15 17  1  0     0  0
 16 18  2  0     0  0
 19 25  1  0     0  0
 20 26  1  0     0  0
 21 27  1  0     0  0
 24 28  1  0     0  0
 26 29  1  0     0  0
 27 29  1  0     0  0
 28 30  1  0     0  0
 30 31  1  0     0  0
M  END
> <standard_type>
pIC50

> <# Confs.>
25

> <canonical_smiles>
CCCCC1=NC(Cl)=C(CC(OC)=O)N1CC2=CC=C(NC(CCCC(O)=O)=O)C=C2

> <standard_relation>
=

> <Publication_ID>
nan

> <predicted_activity_value>
5.0

> <actual_activity_value>
4.494850021680094

> <Compound>
22

> <standard_units>
nM

> hash
1317428753005583636

$$$$
22_
XXILIB    08252103513D 0   0.00000     0.00000

 31 32  0     1  0            999 V2000
    5.0107    1.4785   -0.0029 Cl  0  0  0  0  0  1           0  0  0
    1.8462    2.4044   -2.4080 O   0  0  0  0  0  2           0  0  0
   -4.7053    1.6953    5.9845 O   0  0  0  0  0  2           0  0  0
   -2.2675   -2.1750    5.9491 O   0  0  0  0  0  2           0  0  0
    1.1813    4.3261   -1.3242 O   0  0  0  0  0  2           0  0  0
   -6.2994    1.5136    7.5950 O   0  0  0  0  0  2           0  0  0
    1.4518    0.0000    0.0000 N   0  0  0  0  0  3           0  0  0
    3.5355   -0.7714    0.0002 N   0  0  0  0  0  3           0  0  0
   -2.0310    0.0541    5.3477 N   0  0  0  0  0  3           0  0  0
    3.5508    0.5984    0.0049 C   0  0  0  0  0  4           0  0  0
    2.2641   -1.1177    0.0000 C   0  0  0  0  0  4           0  0  0
    2.2681    1.1139    0.0135 C   0  0  0  0  0  4           0  0  0
   -1.5316    0.0009    4.0319 C   0  0  0  0  0  4           0  0  0
   -0.5420    0.0000    1.3966 C   0  0  0  0  0  4           0  0  0
   -1.2943   -1.2075    3.3691 C   0  0  0  0  0  4           0  0  0
   -1.2676    1.2075    3.3765 C   0  0  0  0  0  4           0  0  0
   -0.8001   -1.2055    2.0616 C   0  0  0  0  0  4           0  0  0
   -0.7748    1.2060    2.0696 C   0  0  0  0  0  4           0  0  0
    1.6228    3.0353   -1.3835 C   0  0  0  0  0  4           0  0  0
   -5.3904    1.0038    6.7266 C   0  0  0  0  0  4           0  0  0
   -2.3670   -0.9753    6.1993 C   0  0  0  0  0  4           0  0  0
    0.9732    4.9636   -2.5890 C   0  0  0  0  0  4           0  0  0
    0.0000    0.0000    0.0000 C   0  0  0  0  0  4           0  0  0
    1.7702   -2.5201   -0.0095 C   0  0  0  0  0  4           0  0  0
    1.7882    2.5191    0.0232 C   0  0  0  0  0  4           0  0  0
   -5.3156   -0.4952    6.7842 C   0  0  0  0  0  4           0  0  0
   -2.8701   -0.4868    7.5388 C   0  0  0  0  0  4           0  0  0
    2.5239   -3.3959   -1.0062 C   0  0  0  0  0  4           0  0  0
   -4.2908   -0.9632    7.8082 C   0  0  0  0  0  4           0  0  0
    2.0514   -4.8497   -1.0528 C   0  0  0  0  0  4           0  0  0
    2.8433   -5.6623   -2.0640 C   0  0  0  0  0  4           0  0  0
  1 10  1  0     0  0
  2 19  2  0     0  0
  3 20  2  0     0  0
  4 21  2  0     0  0
  5 19  1  0     0  0
  5 22  1  0     0  0
  6 20  1  0     0  0
  7 11  1  0     0  0
  7 12  1  0     0  0
  7 23  1  0     0  0
  8 10  1  0     0  0
  8 11  2  0     0  0
  9 13  1  0     0  0
  9 21  1  0     0  0
 10 12  2  0     0  0
 11 24  1  0     0  0
 12 25  1  0     0  0
 13 15  2  0     0  0
 13 16  1  0     0  0
 14 17  2  0     0  0
 14 18  1  0     0  0
 14 23  1  0     0  0
 15 17  1  0     0  0
 16 18  2  0     0  0
 19 25  1  0     0  0
 20 26  1  0     0  0
 21 27  1  0     0  0
 24 28  1  0     0  0
 26 29  1  0     0  0
 27 29  1  0     0  0
 28 30  1  0     0  0
 30 31  1  0     0  0
M  END
> <standard_type>
pIC50

> <# Confs.>
25

> <canonical_smiles>
CCCCC1=NC(Cl)=C(CC(OC)=O)N1CC2=CC=C(NC(CCCC(O)=O)=O)C=C2

> <standard_relation>
=

> <Publication_ID>
nan

> <predicted_activity_value>
5.0

> <actual_activity_value>
4.494850021680094

> <Compound>
22

> <standard_units>
nM

> hash
1317428753005583636

$$$$
22_
XXILIB    08252103513D 0   0.00000     0.00000

 31 32  0     1  0            999 V2000
    5.0107   -1.4785    0.0029 Cl  0  0  0  0  0  1           0  0  0
    1.8226   -2.3628   -2.4525 O   0  0  0  0  0  2           0  0  0
   -5.6744    0.3287    6.1189 O   0  0  0  0  0  2           0  0  0
   -2.2675   -2.1750    5.9491 O   0  0  0  0  0  2           0  0  0
    1.1684   -4.3029   -1.3955 O   0  0  0  0  0  2           0  0  0
   -6.7989   -0.1846    8.0267 O   0  0  0  0  0  2           0  0  0
    1.4518   -0.0000   -0.0000 N   0  0  0  0  0  3           0  0  0
    3.5355    0.7714   -0.0002 N   0  0  0  0  0  3           0  0  0
   -2.0310    0.0541    5.3477 N   0  0  0  0  0  3           0  0  0
    3.5508   -0.5984   -0.0049 C   0  0  0  0  0  4           0  0  0
    2.2641    1.1177    0.0000 C   0  0  0  0  0  4           0  0  0
    2.2681   -1.1139   -0.0135 C   0  0  0  0  0  4           0  0  0
   -1.5316    0.0009    4.0319 C   0  0  0  0  0  4           0  0  0
   -0.5420    0.0000    1.3966 C   0  0  0  0  0  4           0  0  0
   -1.2943   -1.2075    3.3691 C   0  0  0  0  0  4           0  0  0
   -1.2676    1.2075    3.3765 C   0  0  0  0  0  4           0  0  0
   -0.8001   -1.2055    2.0616 C   0  0  0  0  0  4           0  0  0
   -0.7748    1.2060    2.0696 C   0  0  0  0  0  4           0  0  0
    1.6091   -3.0111   -1.4368 C   0  0  0  0  0  4           0  0  0
   -5.8711   -0.4214    7.0659 C   0  0  0  0  0  4           0  0  0
   -2.3670   -0.9753    6.1993 C   0  0  0  0  0  4           0  0  0
    0.9484   -4.9188   -2.6689 C   0  0  0  0  0  4           0  0  0
    0.0000    0.0000    0.0000 C   0  0  0  0  0  4           0  0  0
    1.7702    2.5201    0.0095 C   0  0  0  0  0  4           0  0  0
    1.7882   -2.5191   -0.0232 C   0  0  0  0  0  4           0  0  0
   -5.1125   -1.6967    7.2987 C   0  0  0  0  0  4           0  0  0
   -2.8701   -0.4868    7.5388 C   0  0  0  0  0  4           0  0  0
    2.5114    3.4050   -0.9886 C   0  0  0  0  0  4           0  0  0
   -3.8708   -1.4597    8.1470 C   0  0  0  0  0  4           0  0  0
    2.3981    2.9479   -2.4436 C   0  0  0  0  0  4           0  0  0
    3.1580    3.8724   -3.3804 C   0  0  0  0  0  4           0  0  0
  1 10  1  0     0  0
  2 19  2  0     0  0
  3 20  2  0     0  0
  4 21  2  0     0  0
  5 19  1  0     0  0
  5 22  1  0     0  0
  6 20  1  0     0  0
  7 11  1  0     0  0
  7 12  1  0     0  0
  7 23  1  0     0  0
  8 10  1  0     0  0
  8 11  2  0     0  0
  9 13  1  0     0  0
  9 21  1  0     0  0
 10 12  2  0     0  0
 11 24  1  0     0  0
 12 25  1  0     0  0
 13 15  2  0     0  0
 13 16  1  0     0  0
 14 17  2  0     0  0
 14 18  1  0     0  0
 14 23  1  0     0  0
 15 17  1  0     0  0
 16 18  2  0     0  0
 19 25  1  0     0  0
 20 26  1  0     0  0
 21 27  1  0     0  0
 24 28  1  0     0  0
 26 29  1  0     0  0
 27 29  1  0     0  0
 28 30  1  0     0  0
 30 31  1  0     0  0
M  END
> <standard_type>
pIC50

> <# Confs.>
25

> <canonical_smiles>
CCCCC1=NC(Cl)=C(CC(OC)=O)N1CC2=CC=C(NC(CCCC(O)=O)=O)C=C2

> <standard_relation>
=

> <Publication_ID>
nan

> <predicted_activity_value>
5.0

> <actual_activity_value>
4.494850021680094

> <Compound>
22

> <standard_units>
nM

> hash
1317428753005583636

$$$$
22_
XXILIB    08252103513D 0   0.00000     0.00000

 31 32  0     1  0            999 V2000
    5.0107   -1.4785    0.0029 Cl  0  0  0  0  0  1           0  0  0
    1.3129   -2.3205   -2.4027 O   0  0  0  0  0  2           0  0  0
   -4.6157   -2.4155    9.4015 O   0  0  0  0  0  2           0  0  0
   -2.2675   -2.1750    5.9491 O   0  0  0  0  0  2           0  0  0
    1.8330   -4.3580   -1.4605 O   0  0  0  0  0  2           0  0  0
   -5.0227   -3.8758    7.7075 O   0  0  0  0  0  2           0  0  0
    1.4518   -0.0000   -0.0000 N   0  0  0  0  0  3           0  0  0
    3.5355    0.7714   -0.0002 N   0  0  0  0  0  3           0  0  0
   -2.0310    0.0541    5.3477 N   0  0  0  0  0  3           0  0  0
    3.5508   -0.5984   -0.0049 C   0  0  0  0  0  4           0  0  0
    2.2641    1.1177    0.0000 C   0  0  0  0  0  4           0  0  0
    2.2681   -1.1139   -0.0135 C   0  0  0  0  0  4           0  0  0
   -1.5316    0.0009    4.0319 C   0  0  0  0  0  4           0  0  0
   -0.5420    0.0000    1.3966 C   0  0  0  0  0  4           0  0  0
   -1.2943   -1.2075    3.3691 C   0  0  0  0  0  4           0  0  0
   -1.2676    1.2075    3.3765 C   0  0  0  0  0  4           0  0  0
   -0.8001   -1.2055    2.0616 C   0  0  0  0  0  4           0  0  0
   -0.7748    1.2060    2.0696 C   0  0  0  0  0  4           0  0  0
    1.6091   -3.0111   -1.4368 C   0  0  0  0  0  4           0  0  0
   -4.9092   -2.6302    8.2328 C   0  0  0  0  0  4           0  0  0
   -2.3670   -0.9753    6.1993 C   0  0  0  0  0  4           0  0  0
    1.7008   -4.9810   -2.7425 C   0  0  0  0  0  4           0  0  0
    0.0000    0.0000    0.0000 C   0  0  0  0  0  4           0  0  0
    1.7702    2.5201    0.0095 C   0  0  0  0  0  4           0  0  0
    1.7882   -2.5191   -0.0232 C   0  0  0  0  0  4           0  0  0
   -5.1757   -1.5517    7.2220 C   0  0  0  0  0  4           0  0  0
   -2.8701   -0.4868    7.5388 C   0  0  0  0  0  4           0  0  0
    2.5114    3.4050   -0.9886 C   0  0  0  0  0  4           0  0  0
   -4.3798   -0.2907    7.5295 C   0  0  0  0  0  4           0  0  0
    2.3981    2.9479   -2.4436 C   0  0  0  0  0  4           0  0  0
    3.1580    3.8724   -3.3804 C   0  0  0  0  0  4           0  0  0
  1 10  1  0     0  0
  2 19  2  0     0  0
  3 20  2  0     0  0
  4 21  2  0     0  0
  5 19  1  0     0  0
  5 22  1  0     0  0
  6 20  1  0     0  0
  7 11  1  0     0  0
  7 12  1  0     0  0
  7 23  1  0     0  0
  8 10  1  0     0  0
  8 11  2  0     0  0
  9 13  1  0     0  0
  9 21  1  0     0  0
 10 12  2  0     0  0
 11 24  1  0     0  0
 12 25  1  0     0  0
 13 15  2  0     0  0
 13 16  1  0     0  0
 14 17  2  0     0  0
 14 18  1  0     0  0
 14 23  1  0     0  0
 15 17  1  0     0  0
 16 18  2  0     0  0
 19 25  1  0     0  0
 20 26  1  0     0  0
 21 27  1  0     0  0
 24 28  1  0     0  0
 26 29  1  0     0  0
 27 29  1  0     0  0
 28 30  1  0     0  0
 30 31  1  0     0  0
M  END
> <standard_type>
pIC50

> <# Confs.>
25

> <canonical_smiles>
CCCCC1=NC(Cl)=C(CC(OC)=O)N1CC2=CC=C(NC(CCCC(O)=O)=O)C=C2

> <standard_relation>
=

> <Publication_ID>
nan

> <predicted_activity_value>
5.0

> <actual_activity_value>
4.494850021680094

> <Compound>
22

> <standard_units>
nM

> hash
1317428753005583636

$$$$
22_
XXILIB    08252103513D 0   0.00000     0.00000

 31 32  0     1  0            999 V2000
    5.0107   -1.4785    0.0029 Cl  0  0  0  0  0  1           0  0  0
    1.3129   -2.3205   -2.4027 O   0  0  0  0  0  2           0  0  0
    0.2469    1.6625    9.5582 O   0  0  0  0  0  2           0  0  0
   -2.2675   -2.1750    5.9491 O   0  0  0  0  0  2           0  0  0
    1.8330   -4.3580   -1.4605 O   0  0  0  0  0  2           0  0  0
    1.6381   -0.1350    9.5167 O   0  0  0  0  0  2           0  0  0
    1.4518   -0.0000   -0.0000 N   0  0  0  0  0  3           0  0  0
    3.5355    0.7714   -0.0002 N   0  0  0  0  0  3           0  0  0
   -2.0310    0.0541    5.3477 N   0  0  0  0  0  3           0  0  0
    3.5508   -0.5984   -0.0049 C   0  0  0  0  0  4           0  0  0
    2.2641    1.1177    0.0000 C   0  0  0  0  0  4           0  0  0
    2.2681   -1.1139   -0.0135 C   0  0  0  0  0  4           0  0  0
   -1.5316    0.0009    4.0319 C   0  0  0  0  0  4           0  0  0
   -0.5420    0.0000    1.3966 C   0  0  0  0  0  4           0  0  0
   -1.2943   -1.2075    3.3691 C   0  0  0  0  0  4           0  0  0
   -1.2676    1.2075    3.3765 C   0  0  0  0  0  4           0  0  0
   -0.8001   -1.2055    2.0616 C   0  0  0  0  0  4           0  0  0
   -0.7748    1.2060    2.0696 C   0  0  0  0  0  4           0  0  0
    1.6091   -3.0111   -1.4368 C   0  0  0  0  0  4           0  0  0
    0.4670    0.4975    9.2541 C   0  0  0  0  0  4           0  0  0
   -2.3670   -0.9753    6.1993 C   0  0  0  0  0  4           0  0  0
    1.7008   -4.9810   -2.7425 C   0  0  0  0  0  4           0  0  0
    0.0000    0.0000    0.0000 C   0  0  0  0  0  4           0  0  0
    1.7702    2.5201    0.0095 C   0  0  0  0  0  4           0  0  0
    1.7882   -2.5191   -0.0232 C   0  0  0  0  0  4           0  0  0
   -0.5195   -0.3864    8.5459 C   0  0  0  0  0  4           0  0  0
   -2.8701   -0.4868    7.5388 C   0  0  0  0  0  4           0  0  0
    2.5114    3.4050   -0.9886 C   0  0  0  0  0  4           0  0  0
   -1.8204    0.3498    8.2571 C   0  0  0  0  0  4           0  0  0
    2.3981    2.9479   -2.4436 C   0  0  0  0  0  4           0  0  0
    3.1580    3.8724   -3.3804 C   0  0  0  0  0  4           0  0  0
  1 10  1  0     0  0
  2 19  2  0     0  0
  3 20  2  0     0  0
  4 21  2  0     0  0
  5 19  1  0     0  0
  5 22  1  0     0  0
  6 20  1  0     0  0
  7 11  1  0     0  0
  7 12  1  0     0  0
  7 23  1  0     0  0
  8 10  1  0     0  0
  8 11  2  0     0  0
  9 13  1  0     0  0
  9 21  1  0     0  0
 10 12  2  0     0  0
 11 24  1  0     0  0
 12 25  1  0     0  0
 13 15  2  0     0  0
 13 16  1  0     0  0
 14 17  2  0     0  0
 14 18  1  0     0  0
 14 23  1  0     0  0
 15 17  1  0     0  0
 16 18  2  0     0  0
 19 25  1  0     0  0
 20 26  1  0     0  0
 21 27  1  0     0  0
 24 28  1  0     0  0
 26 29  1  0     0  0
 27 29  1  0     0  0
 28 30  1  0     0  0
 30 31  1  0     0  0
M  END
> <standard_type>
pIC50

> <# Confs.>
25

> <canonical_smiles>
CCCCC1=NC(Cl)=C(CC(OC)=O)N1CC2=CC=C(NC(CCCC(O)=O)=O)C=C2

> <standard_relation>
=

> <Publication_ID>
nan

> <predicted_activity_value>
5.0

> <actual_activity_value>
4.494850021680094

> <Compound>
22

> <standard_units>
nM

> hash
1317428753005583636

$$$$
22_
XXILIB    08252103513D 0   0.00000     0.00000

 31 32  0     1  0            999 V2000
    5.0107    1.4785   -0.0029 Cl  0  0  0  0  0  1           0  0  0
    1.8462    2.4044   -2.4080 O   0  0  0  0  0  2           0  0  0
   -5.8922    0.5157    7.8530 O   0  0  0  0  0  2           0  0  0
   -2.2675   -2.1750    5.9491 O   0  0  0  0  0  2           0  0  0
    1.1813    4.3261   -1.3242 O   0  0  0  0  0  2           0  0  0
   -6.5400   -0.4214    5.8858 O   0  0  0  0  0  2           0  0  0
    1.4518    0.0000    0.0000 N   0  0  0  0  0  3           0  0  0
    3.5355   -0.7714    0.0002 N   0  0  0  0  0  3           0  0  0
   -2.0310    0.0541    5.3477 N   0  0  0  0  0  3           0  0  0
    3.5508    0.5984    0.0049 C   0  0  0  0  0  4           0  0  0
    2.2641   -1.1177    0.0000 C   0  0  0  0  0  4           0  0  0
    2.2681    1.1139    0.0135 C   0  0  0  0  0  4           0  0  0
   -1.5316    0.0009    4.0319 C   0  0  0  0  0  4           0  0  0
   -0.5420    0.0000    1.3966 C   0  0  0  0  0  4           0  0  0
   -1.2943   -1.2075    3.3691 C   0  0  0  0  0  4           0  0  0
   -1.2676    1.2075    3.3765 C   0  0  0  0  0  4           0  0  0
   -0.8001   -1.2055    2.0616 C   0  0  0  0  0  4           0  0  0
   -0.7748    1.2060    2.0696 C   0  0  0  0  0  4           0  0  0
    1.6228    3.0353   -1.3835 C   0  0  0  0  0  4           0  0  0
   -5.8711   -0.4214    7.0659 C   0  0  0  0  0  4           0  0  0
   -2.3670   -0.9753    6.1993 C   0  0  0  0  0  4           0  0  0
    0.9732    4.9636   -2.5890 C   0  0  0  0  0  4           0  0  0
    0.0000    0.0000    0.0000 C   0  0  0  0  0  4           0  0  0
    1.7702   -2.5201   -0.0095 C   0  0  0  0  0  4           0  0  0
    1.7882    2.5191    0.0232 C   0  0  0  0  0  4           0  0  0
   -5.1125   -1.6967    7.2987 C   0  0  0  0  0  4           0  0  0
   -2.8701   -0.4868    7.5388 C   0  0  0  0  0  4           0  0  0
    2.5239   -3.3959   -1.0062 C   0  0  0  0  0  4           0  0  0
   -3.8708   -1.4597    8.1470 C   0  0  0  0  0  4           0  0  0
    2.0514   -4.8497   -1.0528 C   0  0  0  0  0  4           0  0  0
    2.8433   -5.6623   -2.0640 C   0  0  0  0  0  4           0  0  0
  1 10  1  0     0  0
  2 19  2  0     0  0
  3 20  2  0     0  0
  4 21  2  0     0  0
  5 19  1  0     0  0
  5 22  1  0     0  0
  6 20  1  0     0  0
  7 11  1  0     0  0
  7 12  1  0     0  0
  7 23  1  0     0  0
  8 10  1  0     0  0
  8 11  2  0     0  0
  9 13  1  0     0  0
  9 21  1  0     0  0
 10 12  2  0     0  0
 11 24  1  0     0  0
 12 25  1  0     0  0
 13 15  2  0     0  0
 13 16  1  0     0  0
 14 17  2  0     0  0
 14 18  1  0     0  0
 14 23  1  0     0  0
 15 17  1  0     0  0
 16 18  2  0     0  0
 19 25  1  0     0  0
 20 26  1  0     0  0
 21 27  1  0     0  0
 24 28  1  0     0  0
 26 29  1  0     0  0
 27 29  1  0     0  0
 28 30  1  0     0  0
 30 31  1  0     0  0
M  END
> <standard_type>
pIC50

> <# Confs.>
25

> <canonical_smiles>
CCCCC1=NC(Cl)=C(CC(OC)=O)N1CC2=CC=C(NC(CCCC(O)=O)=O)C=C2

> <standard_relation>
=

> <Publication_ID>
nan

> <predicted_activity_value>
5.0

> <actual_activity_value>
4.494850021680094

> <Compound>
22

> <standard_units>
nM

> hash
1317428753005583636

$$$$
22_
XXILIB    08252103513D 0   0.00000     0.00000

 31 32  0     1  0            999 V2000
    5.0107   -1.4785    0.0029 Cl  0  0  0  0  0  1           0  0  0
    1.8226   -2.3628   -2.4525 O   0  0  0  0  0  2           0  0  0
   -6.9474   -2.3341    8.7259 O   0  0  0  0  0  2           0  0  0
   -2.2675   -2.1750    5.9491 O   0  0  0  0  0  2           0  0  0
    1.1684   -4.3029   -1.3955 O   0  0  0  0  0  2           0  0  0
   -5.7994   -3.9523    7.6162 O   0  0  0  0  0  2           0  0  0
    1.4518   -0.0000   -0.0000 N   0  0  0  0  0  3           0  0  0
    3.5355    0.7714   -0.0002 N   0  0  0  0  0  3           0  0  0
   -2.0310    0.0541    5.3477 N   0  0  0  0  0  3           0  0  0
    3.5508   -0.5984   -0.0049 C   0  0  0  0  0  4           0  0  0
    2.2641    1.1177    0.0000 C   0  0  0  0  0  4           0  0  0
    2.2681   -1.1139   -0.0135 C   0  0  0  0  0  4           0  0  0
   -1.5316    0.0009    4.0319 C   0  0  0  0  0  4           0  0  0
   -0.5420    0.0000    1.3966 C   0  0  0  0  0  4           0  0  0
   -1.2943   -1.2075    3.3691 C   0  0  0  0  0  4           0  0  0
   -1.2676    1.2075    3.3765 C   0  0  0  0  0  4           0  0  0
   -0.8001   -1.2055    2.0616 C   0  0  0  0  0  4           0  0  0
   -0.7748    1.2060    2.0696 C   0  0  0  0  0  4           0  0  0
    1.6091   -3.0111   -1.4368 C   0  0  0  0  0  4           0  0  0
   -6.0528   -2.6644    7.9584 C   0  0  0  0  0  4           0  0  0
   -2.3670   -0.9753    6.1993 C   0  0  0  0  0  4           0  0  0
    0.9484   -4.9188   -2.6689 C   0  0  0  0  0  4           0  0  0
    0.0000    0.0000    0.0000 C   0  0  0  0  0  4           0  0  0
    1.7702    2.5201    0.0095 C   0  0  0  0  0  4           0  0  0
    1.7882   -2.5191   -0.0232 C   0  0  0  0  0  4           0  0  0
   -5.1125   -1.6967    7.2987 C   0  0  0  0  0  4           0  0  0
   -2.8701   -0.4868    7.5388 C   0  0  0  0  0  4           0  0  0
    2.5114    3.4050   -0.9886 C   0  0  0  0  0  4           0  0  0
   -3.8708   -1.4597    8.1470 C   0  0  0  0  0  4           0  0  0
    2.0385    4.8591   -1.0160 C   0  0  0  0  0  4           0  0  0
    2.8177    5.6809   -2.0296 C   0  0  0  0  0  4           0  0  0
  1 10  1  0     0  0
  2 19  2  0     0  0
  3 20  2  0     0  0
  4 21  2  0     0  0
  5 19  1  0     0  0
  5 22  1  0     0  0
  6 20  1  0     0  0
  7 11  1  0     0  0
  7 12  1  0     0  0
  7 23  1  0     0  0
  8 10  1  0     0  0
  8 11  2  0     0  0
  9 13  1  0     0  0
  9 21  1  0     0  0
 10 12  2  0     0  0
 11 24  1  0     0  0
 12 25  1  0     0  0
 13 15  2  0     0  0
 13 16  1  0     0  0
 14 17  2  0     0  0
 14 18  1  0     0  0
 14 23  1  0     0  0
 15 17  1  0     0  0
 16 18  2  0     0  0
 19 25  1  0     0  0
 20 26  1  0     0  0
 21 27  1  0     0  0
 24 28  1  0     0  0
 26 29  1  0     0  0
 27 29  1  0     0  0
 28 30  1  0     0  0
 30 31  1  0     0  0
M  END
> <standard_type>
pIC50

> <# Confs.>
25

> <canonical_smiles>
CCCCC1=NC(Cl)=C(CC(OC)=O)N1CC2=CC=C(NC(CCCC(O)=O)=O)C=C2

> <standard_relation>
=

> <Publication_ID>
nan

> <predicted_activity_value>
5.0

> <actual_activity_value>
4.494850021680094

> <Compound>
22

> <standard_units>
nM

> hash
1317428753005583636

$$$$
22_
XXILIB    08252103513D 0   0.00000     0.00000

 31 32  0     1  0            999 V2000
    5.0107    1.4785   -0.0029 Cl  0  0  0  0  0  1           0  0  0
    1.3361    2.3614   -2.3638 O   0  0  0  0  0  2           0  0  0
   -6.9474   -2.3341    8.7259 O   0  0  0  0  0  2           0  0  0
   -2.2675   -2.1750    5.9491 O   0  0  0  0  0  2           0  0  0
    1.8465    4.3824   -1.3818 O   0  0  0  0  0  2           0  0  0
   -5.7994   -3.9523    7.6162 O   0  0  0  0  0  2           0  0  0
    1.4518    0.0000    0.0000 N   0  0  0  0  0  3           0  0  0
    3.5355   -0.7714    0.0002 N   0  0  0  0  0  3           0  0  0
   -2.0310    0.0541    5.3477 N   0  0  0  0  0  3           0  0  0
    3.5508    0.5984    0.0049 C   0  0  0  0  0  4           0  0  0
    2.2641   -1.1177    0.0000 C   0  0  0  0  0  4           0  0  0
    2.2681    1.1139    0.0135 C   0  0  0  0  0  4           0  0  0
   -1.5316    0.0009    4.0319 C   0  0  0  0  0  4           0  0  0
   -0.5420    0.0000    1.3966 C   0  0  0  0  0  4           0  0  0
   -1.2943   -1.2075    3.3691 C   0  0  0  0  0  4           0  0  0
   -1.2676    1.2075    3.3765 C   0  0  0  0  0  4           0  0  0
   -0.8001   -1.2055    2.0616 C   0  0  0  0  0  4           0  0  0
   -0.7748    1.2060    2.0696 C   0  0  0  0  0  4           0  0  0
    1.6228    3.0353   -1.3835 C   0  0  0  0  0  4           0  0  0
   -6.0528   -2.6644    7.9584 C   0  0  0  0  0  4           0  0  0
   -2.3670   -0.9753    6.1993 C   0  0  0  0  0  4           0  0  0
    1.7263    5.0273   -2.6541 C   0  0  0  0  0  4           0  0  0
    0.0000    0.0000    0.0000 C   0  0  0  0  0  4           0  0  0
    1.7702   -2.5201   -0.0095 C   0  0  0  0  0  4           0  0  0
    1.7882    2.5191    0.0232 C   0  0  0  0  0  4           0  0  0
   -5.1125   -1.6967    7.2987 C   0  0  0  0  0  4           0  0  0
   -2.8701   -0.4868    7.5388 C   0  0  0  0  0  4           0  0  0
    2.5239   -3.3959   -1.0062 C   0  0  0  0  0  4           0  0  0
   -3.8708   -1.4597    8.1470 C   0  0  0  0  0  4           0  0  0
    2.4288   -2.9255   -2.4583 C   0  0  0  0  0  4           0  0  0
    3.2004   -3.8416   -3.3938 C   0  0  0  0  0  4           0  0  0
  1 10  1  0     0  0
  2 19  2  0     0  0
  3 20  2  0     0  0
  4 21  2  0     0  0
  5 19  1  0     0  0
  5 22  1  0     0  0
  6 20  1  0     0  0
  7 11  1  0     0  0
  7 12  1  0     0  0
  7 23  1  0     0  0
  8 10  1  0     0  0
  8 11  2  0     0  0
  9 13  1  0     0  0
  9 21  1  0     0  0
 10 12  2  0     0  0
 11 24  1  0     0  0
 12 25  1  0     0  0
 13 15  2  0     0  0
 13 16  1  0     0  0
 14 17  2  0     0  0
 14 18  1  0     0  0
 14 23  1  0     0  0
 15 17  1  0     0  0
 16 18  2  0     0  0
 19 25  1  0     0  0
 20 26  1  0     0  0
 21 27  1  0     0  0
 24 28  1  0     0  0
 26 29  1  0     0  0
 27 29  1  0     0  0
 28 30  1  0     0  0
 30 31  1  0     0  0
M  END
> <standard_type>
pIC50

> <# Confs.>
25

> <canonical_smiles>
CCCCC1=NC(Cl)=C(CC(OC)=O)N1CC2=CC=C(NC(CCCC(O)=O)=O)C=C2

> <standard_relation>
=

> <Publication_ID>
nan

> <predicted_activity_value>
5.0

> <actual_activity_value>
4.494850021680094

> <Compound>
22

> <standard_units>
nM

> hash
1317428753005583636

$$$$
22_
XXILIB    08252103513D 0   0.00000     0.00000

 31 32  0     1  0            999 V2000
    5.0107   -1.4785    0.0029 Cl  0  0  0  0  0  1           0  0  0
    1.8226   -2.3628   -2.4525 O   0  0  0  0  0  2           0  0  0
   -3.9882    2.3707    8.4449 O   0  0  0  0  0  2           0  0  0
   -2.2675   -2.1750    5.9491 O   0  0  0  0  0  2           0  0  0
    1.1684   -4.3029   -1.3955 O   0  0  0  0  0  2           0  0  0
   -4.3175    1.6918   10.5893 O   0  0  0  0  0  2           0  0  0
    1.4518   -0.0000   -0.0000 N   0  0  0  0  0  3           0  0  0
    3.5355    0.7714   -0.0002 N   0  0  0  0  0  3           0  0  0
   -2.0310    0.0541    5.3477 N   0  0  0  0  0  3           0  0  0
    3.5508   -0.5984   -0.0049 C   0  0  0  0  0  4           0  0  0
    2.2641    1.1177    0.0000 C   0  0  0  0  0  4           0  0  0
    2.2681   -1.1139   -0.0135 C   0  0  0  0  0  4           0  0  0
   -1.5316    0.0009    4.0319 C   0  0  0  0  0  4           0  0  0
   -0.5420    0.0000    1.3966 C   0  0  0  0  0  4           0  0  0
   -1.2943   -1.2075    3.3691 C   0  0  0  0  0  4           0  0  0
   -1.2676    1.2075    3.3765 C   0  0  0  0  0  4           0  0  0
   -0.8001   -1.2055    2.0616 C   0  0  0  0  0  4           0  0  0
   -0.7748    1.2060    2.0696 C   0  0  0  0  0  4           0  0  0
    1.6091   -3.0111   -1.4368 C   0  0  0  0  0  4           0  0  0
   -4.3754    1.5282    9.2440 C   0  0  0  0  0  4           0  0  0
   -2.3670   -0.9753    6.1993 C   0  0  0  0  0  4           0  0  0
    0.9484   -4.9188   -2.6689 C   0  0  0  0  0  4           0  0  0
    0.0000    0.0000    0.0000 C   0  0  0  0  0  4           0  0  0
    1.7702    2.5201    0.0095 C   0  0  0  0  0  4           0  0  0
    1.7882   -2.5191   -0.0232 C   0  0  0  0  0  4           0  0  0
   -4.9581    0.2014    8.8490 C   0  0  0  0  0  4           0  0  0
   -2.8701   -0.4868    7.5388 C   0  0  0  0  0  4           0  0  0
    2.5114    3.4050   -0.9886 C   0  0  0  0  0  4           0  0  0
   -4.3798   -0.2907    7.5295 C   0  0  0  0  0  4           0  0  0
    2.0385    4.8591   -1.0160 C   0  0  0  0  0  4           0  0  0
    2.8177    5.6809   -2.0296 C   0  0  0  0  0  4           0  0  0
  1 10  1  0     0  0
  2 19  2  0     0  0
  3 20  2  0     0  0
  4 21  2  0     0  0
  5 19  1  0     0  0
  5 22  1  0     0  0
  6 20  1  0     0  0
  7 11  1  0     0  0
  7 12  1  0     0  0
  7 23  1  0     0  0
  8 10  1  0     0  0
  8 11  2  0     0  0
  9 13  1  0     0  0
  9 21  1  0     0  0
 10 12  2  0     0  0
 11 24  1  0     0  0
 12 25  1  0     0  0
 13 15  2  0     0  0
 13 16  1  0     0  0
 14 17  2  0     0  0
 14 18  1  0     0  0
 14 23  1  0     0  0
 15 17  1  0     0  0
 16 18  2  0     0  0
 19 25  1  0     0  0
 20 26  1  0     0  0
 21 27  1  0     0  0
 24 28  1  0     0  0
 26 29  1  0     0  0
 27 29  1  0     0  0
 28 30  1  0     0  0
 30 31  1  0     0  0
M  END
> <standard_type>
pIC50

> <# Confs.>
25

> <canonical_smiles>
CCCCC1=NC(Cl)=C(CC(OC)=O)N1CC2=CC=C(NC(CCCC(O)=O)=O)C=C2

> <standard_relation>
=

> <Publication_ID>
nan

> <predicted_activity_value>
5.0

> <actual_activity_value>
4.494850021680094

> <Compound>
22

> <standard_units>
nM

> hash
1317428753005583636

$$$$
22_
XXILIB    08252103513D 0   0.00000     0.00000

 31 32  0     1  0            999 V2000
    5.0107   -1.4785    0.0029 Cl  0  0  0  0  0  1           0  0  0
    1.8226   -2.3628   -2.4525 O   0  0  0  0  0  2           0  0  0
   -7.1500   -0.1887    7.4551 O   0  0  0  0  0  2           0  0  0
   -2.2675   -2.1750    5.9491 O   0  0  0  0  0  2           0  0  0
    1.1684   -4.3029   -1.3955 O   0  0  0  0  0  2           0  0  0
   -7.3850   -2.3959    6.9644 O   0  0  0  0  0  2           0  0  0
    1.4518   -0.0000   -0.0000 N   0  0  0  0  0  3           0  0  0
    3.5355    0.7714   -0.0002 N   0  0  0  0  0  3           0  0  0
   -2.0310    0.0541    5.3477 N   0  0  0  0  0  3           0  0  0
    3.5508   -0.5984   -0.0049 C   0  0  0  0  0  4           0  0  0
    2.2641    1.1177    0.0000 C   0  0  0  0  0  4           0  0  0
    2.2681   -1.1139   -0.0135 C   0  0  0  0  0  4           0  0  0
   -1.5316    0.0009    4.0319 C   0  0  0  0  0  4           0  0  0
   -0.5420    0.0000    1.3966 C   0  0  0  0  0  4           0  0  0
   -1.2943   -1.2075    3.3691 C   0  0  0  0  0  4           0  0  0
   -1.2676    1.2075    3.3765 C   0  0  0  0  0  4           0  0  0
   -0.8001   -1.2055    2.0616 C   0  0  0  0  0  4           0  0  0
   -0.7748    1.2060    2.0696 C   0  0  0  0  0  4           0  0  0
    1.6091   -3.0111   -1.4368 C   0  0  0  0  0  4           0  0  0
   -6.6537   -1.2847    7.2295 C   0  0  0  0  0  4           0  0  0
   -2.3670   -0.9753    6.1993 C   0  0  0  0  0  4           0  0  0
    0.9484   -4.9188   -2.6689 C   0  0  0  0  0  4           0  0  0
    0.0000    0.0000    0.0000 C   0  0  0  0  0  4           0  0  0
    1.7702    2.5201    0.0095 C   0  0  0  0  0  4           0  0  0
    1.7882   -2.5191   -0.0232 C   0  0  0  0  0  4           0  0  0
   -5.1757   -1.5517    7.2220 C   0  0  0  0  0  4           0  0  0
   -2.8701   -0.4868    7.5388 C   0  0  0  0  0  4           0  0  0
    2.5114    3.4050   -0.9886 C   0  0  0  0  0  4           0  0  0
   -4.3798   -0.2907    7.5295 C   0  0  0  0  0  4           0  0  0
    2.0385    4.8591   -1.0160 C   0  0  0  0  0  4           0  0  0
    2.8177    5.6809   -2.0296 C   0  0  0  0  0  4           0  0  0
  1 10  1  0     0  0
  2 19  2  0     0  0
  3 20  2  0     0  0
  4 21  2  0     0  0
  5 19  1  0     0  0
  5 22  1  0     0  0
  6 20  1  0     0  0
  7 11  1  0     0  0
  7 12  1  0     0  0
  7 23  1  0     0  0
  8 10  1  0     0  0
  8 11  2  0     0  0
  9 13  1  0     0  0
  9 21  1  0     0  0
 10 12  2  0     0  0
 11 24  1  0     0  0
 12 25  1  0     0  0
 13 15  2  0     0  0
 13 16  1  0     0  0
 14 17  2  0     0  0
 14 18  1  0     0  0
 14 23  1  0     0  0
 15 17  1  0     0  0
 16 18  2  0     0  0
 19 25  1  0     0  0
 20 26  1  0     0  0
 21 27  1  0     0  0
 24 28  1  0     0  0
 26 29  1  0     0  0
 27 29  1  0     0  0
 28 30  1  0     0  0
 30 31  1  0     0  0
M  END
> <standard_type>
pIC50

> <# Confs.>
25

> <canonical_smiles>
CCCCC1=NC(Cl)=C(CC(OC)=O)N1CC2=CC=C(NC(CCCC(O)=O)=O)C=C2

> <standard_relation>
=

> <Publication_ID>
nan

> <predicted_activity_value>
5.0

> <actual_activity_value>
4.494850021680094

> <Compound>
22

> <standard_units>
nM

> hash
1317428753005583636

$$$$
22_
XXILIB    08252103513D 0   0.00000     0.00000

 31 32  0     1  0            999 V2000
    5.0107    1.4785   -0.0029 Cl  0  0  0  0  0  1           0  0  0
    1.3361    2.3614   -2.3638 O   0  0  0  0  0  2           0  0  0
   -4.7053    1.6953    5.9845 O   0  0  0  0  0  2           0  0  0
   -2.2675   -2.1750    5.9491 O   0  0  0  0  0  2           0  0  0
    1.8465    4.3824   -1.3818 O   0  0  0  0  0  2           0  0  0
   -6.2994    1.5136    7.5950 O   0  0  0  0  0  2           0  0  0
    1.4518    0.0000    0.0000 N   0  0  0  0  0  3           0  0  0
    3.5355   -0.7714    0.0002 N   0  0  0  0  0  3           0  0  0
   -2.0310    0.0541    5.3477 N   0  0  0  0  0  3           0  0  0
    3.5508    0.5984    0.0049 C   0  0  0  0  0  4           0  0  0
    2.2641   -1.1177    0.0000 C   0  0  0  0  0  4           0  0  0
    2.2681    1.1139    0.0135 C   0  0  0  0  0  4           0  0  0
   -1.5316    0.0009    4.0319 C   0  0  0  0  0  4           0  0  0
   -0.5420    0.0000    1.3966 C   0  0  0  0  0  4           0  0  0
   -1.2943   -1.2075    3.3691 C   0  0  0  0  0  4           0  0  0
   -1.2676    1.2075    3.3765 C   0  0  0  0  0  4           0  0  0
   -0.8001   -1.2055    2.0616 C   0  0  0  0  0  4           0  0  0
   -0.7748    1.2060    2.0696 C   0  0  0  0  0  4           0  0  0
    1.6228    3.0353   -1.3835 C   0  0  0  0  0  4           0  0  0
   -5.3904    1.0038    6.7266 C   0  0  0  0  0  4           0  0  0
   -2.3670   -0.9753    6.1993 C   0  0  0  0  0  4           0  0  0
    1.7263    5.0273   -2.6541 C   0  0  0  0  0  4           0  0  0
    0.0000    0.0000    0.0000 C   0  0  0  0  0  4           0  0  0
    1.7702   -2.5201   -0.0095 C   0  0  0  0  0  4           0  0  0
    1.7882    2.5191    0.0232 C   0  0  0  0  0  4           0  0  0
   -5.3156   -0.4952    6.7842 C   0  0  0  0  0  4           0  0  0
   -2.8701   -0.4868    7.5388 C   0  0  0  0  0  4           0  0  0
    2.5114   -3.4050    0.9886 C   0  0  0  0  0  4           0  0  0
   -4.2908   -0.9632    7.8082 C   0  0  0  0  0  4           0  0  0
    2.3981   -2.9479    2.4436 C   0  0  0  0  0  4           0  0  0
    3.1580   -3.8724    3.3804 C   0  0  0  0  0  4           0  0  0
  1 10  1  0     0  0
  2 19  2  0     0  0
  3 20  2  0     0  0
  4 21  2  0     0  0
  5 19  1  0     0  0
  5 22  1  0     0  0
  6 20  1  0     0  0
  7 11  1  0     0  0
  7 12  1  0     0  0
  7 23  1  0     0  0
  8 10  1  0     0  0
  8 11  2  0     0  0
  9 13  1  0     0  0
  9 21  1  0     0  0
 10 12  2  0     0  0
 11 24  1  0     0  0
 12 25  1  0     0  0
 13 15  2  0     0  0
 13 16  1  0     0  0
 14 17  2  0     0  0
 14 18  1  0     0  0
 14 23  1  0     0  0
 15 17  1  0     0  0
 16 18  2  0     0  0
 19 25  1  0     0  0
 20 26  1  0     0  0
 21 27  1  0     0  0
 24 28  1  0     0  0
 26 29  1  0     0  0
 27 29  1  0     0  0
 28 30  1  0     0  0
 30 31  1  0     0  0
M  END
> <standard_type>
pIC50

> <# Confs.>
25

> <canonical_smiles>
CCCCC1=NC(Cl)=C(CC(OC)=O)N1CC2=CC=C(NC(CCCC(O)=O)=O)C=C2

> <standard_relation>
=

> <Publication_ID>
nan

> <predicted_activity_value>
5.0

> <actual_activity_value>
4.494850021680094

> <Compound>
22

> <standard_units>
nM

> hash
1317428753005583636

$$$$
22_
XXILIB    08252103513D 0   0.00000     0.00000

 31 32  0     1  0            999 V2000
    5.0107   -1.4785    0.0029 Cl  0  0  0  0  0  1           0  0  0
    1.8226   -2.3628   -2.4525 O   0  0  0  0  0  2           0  0  0
   -2.8429   -2.4369   10.0752 O   0  0  0  0  0  2           0  0  0
   -2.2675   -2.1750    5.9491 O   0  0  0  0  0  2           0  0  0
    1.1684   -4.3029   -1.3955 O   0  0  0  0  0  2           0  0  0
   -1.4370   -3.9192    9.0782 O   0  0  0  0  0  2           0  0  0
    1.4518   -0.0000   -0.0000 N   0  0  0  0  0  3           0  0  0
    3.5355    0.7714   -0.0002 N   0  0  0  0  0  3           0  0  0
   -2.0310    0.0541    5.3477 N   0  0  0  0  0  3           0  0  0
    3.5508   -0.5984   -0.0049 C   0  0  0  0  0  4           0  0  0
    2.2641    1.1177    0.0000 C   0  0  0  0  0  4           0  0  0
    2.2681   -1.1139   -0.0135 C   0  0  0  0  0  4           0  0  0
   -1.5316    0.0009    4.0319 C   0  0  0  0  0  4           0  0  0
   -0.5420    0.0000    1.3966 C   0  0  0  0  0  4           0  0  0
   -1.2943   -1.2075    3.3691 C   0  0  0  0  0  4           0  0  0
   -1.2676    1.2075    3.3765 C   0  0  0  0  0  4           0  0  0
   -0.8001   -1.2055    2.0616 C   0  0  0  0  0  4           0  0  0
   -0.7748    1.2060    2.0696 C   0  0  0  0  0  4           0  0  0
    1.6091   -3.0111   -1.4368 C   0  0  0  0  0  4           0  0  0
   -1.8519   -2.6671    9.3945 C   0  0  0  0  0  4           0  0  0
   -2.3670   -0.9753    6.1993 C   0  0  0  0  0  4           0  0  0
    0.9484   -4.9188   -2.6689 C   0  0  0  0  0  4           0  0  0
    0.0000    0.0000    0.0000 C   0  0  0  0  0  4           0  0  0
    1.7702    2.5201    0.0095 C   0  0  0  0  0  4           0  0  0
    1.7882   -2.5191   -0.0232 C   0  0  0  0  0  4           0  0  0
   -0.9589   -1.6025    8.8244 C   0  0  0  0  0  4           0  0  0
   -2.8701   -0.4868    7.5388 C   0  0  0  0  0  4           0  0  0
    2.5114    3.4050   -0.9886 C   0  0  0  0  0  4           0  0  0
   -1.7314   -0.3226    8.5358 C   0  0  0  0  0  4           0  0  0
    2.0385    4.8591   -1.0160 C   0  0  0  0  0  4           0  0  0
    2.8177    5.6809   -2.0296 C   0  0  0  0  0  4           0  0  0
  1 10  1  0     0  0
  2 19  2  0     0  0
  3 20  2  0     0  0
  4 21  2  0     0  0
  5 19  1  0     0  0
  5 22  1  0     0  0
  6 20  1  0     0  0
  7 11  1  0     0  0
  7 12  1  0     0  0
  7 23  1  0     0  0
  8 10  1  0     0  0
  8 11  2  0     0  0
  9 13  1  0     0  0
  9 21  1  0     0  0
 10 12  2  0     0  0
 11 24  1  0     0  0
 12 25  1  0     0  0
 13 15  2  0     0  0
 13 16  1  0     0  0
 14 17  2  0     0  0
 14 18  1  0     0  0
 14 23  1  0     0  0
 15 17  1  0     0  0
 16 18  2  0     0  0
 19 25  1  0     0  0
 20 26  1  0     0  0
 21 27  1  0     0  0
 24 28  1  0     0  0
 26 29  1  0     0  0
 27 29  1  0     0  0
 28 30  1  0     0  0
 30 31  1  0     0  0
M  END
> <standard_type>
pIC50

> <# Confs.>
25

> <canonical_smiles>
CCCCC1=NC(Cl)=C(CC(OC)=O)N1CC2=CC=C(NC(CCCC(O)=O)=O)C=C2

> <standard_relation>
=

> <Publication_ID>
nan

> <predicted_activity_value>
5.0

> <actual_activity_value>
4.494850021680094

> <Compound>
22

> <standard_units>
nM

> hash
1317428753005583636

$$$$
22_
XXILIB    08252103513D 0   0.00000     0.00000

 31 32  0     1  0            999 V2000
    5.0107    1.4785   -0.0029 Cl  0  0  0  0  0  1           0  0  0
    1.3361    2.3614   -2.3638 O   0  0  0  0  0  2           0  0  0
   -3.9882    2.3707    8.4449 O   0  0  0  0  0  2           0  0  0
   -2.2675   -2.1750    5.9491 O   0  0  0  0  0  2           0  0  0
    1.8465    4.3824   -1.3818 O   0  0  0  0  0  2           0  0  0
   -4.3175    1.6918   10.5893 O   0  0  0  0  0  2           0  0  0
    1.4518    0.0000    0.0000 N   0  0  0  0  0  3           0  0  0
    3.5355   -0.7714    0.0002 N   0  0  0  0  0  3           0  0  0
   -2.0310    0.0541    5.3477 N   0  0  0  0  0  3           0  0  0
    3.5508    0.5984    0.0049 C   0  0  0  0  0  4           0  0  0
    2.2641   -1.1177    0.0000 C   0  0  0  0  0  4           0  0  0
    2.2681    1.1139    0.0135 C   0  0  0  0  0  4           0  0  0
   -1.5316    0.0009    4.0319 C   0  0  0  0  0  4           0  0  0
   -0.5420    0.0000    1.3966 C   0  0  0  0  0  4           0  0  0
   -1.2943   -1.2075    3.3691 C   0  0  0  0  0  4           0  0  0
   -1.2676    1.2075    3.3765 C   0  0  0  0  0  4           0  0  0
   -0.8001   -1.2055    2.0616 C   0  0  0  0  0  4           0  0  0
   -0.7748    1.2060    2.0696 C   0  0  0  0  0  4           0  0  0
    1.6228    3.0353   -1.3835 C   0  0  0  0  0  4           0  0  0
   -4.3754    1.5282    9.2440 C   0  0  0  0  0  4           0  0  0
   -2.3670   -0.9753    6.1993 C   0  0  0  0  0  4           0  0  0
    1.7263    5.0273   -2.6541 C   0  0  0  0  0  4           0  0  0
    0.0000    0.0000    0.0000 C   0  0  0  0  0  4           0  0  0
    1.7702   -2.5201   -0.0095 C   0  0  0  0  0  4           0  0  0
    1.7882    2.5191    0.0232 C   0  0  0  0  0  4           0  0  0
   -4.9581    0.2014    8.8490 C   0  0  0  0  0  4           0  0  0
   -2.8701   -0.4868    7.5388 C   0  0  0  0  0  4           0  0  0
    2.5239   -3.3959   -1.0062 C   0  0  0  0  0  4           0  0  0
   -4.3798   -0.2907    7.5295 C   0  0  0  0  0  4           0  0  0
    2.4288   -2.9255   -2.4583 C   0  0  0  0  0  4           0  0  0
    3.2004   -3.8416   -3.3938 C   0  0  0  0  0  4           0  0  0
  1 10  1  0     0  0
  2 19  2  0     0  0
  3 20  2  0     0  0
  4 21  2  0     0  0
  5 19  1  0     0  0
  5 22  1  0     0  0
  6 20  1  0     0  0
  7 11  1  0     0  0
  7 12  1  0     0  0
  7 23  1  0     0  0
  8 10  1  0     0  0
  8 11  2  0     0  0
  9 13  1  0     0  0
  9 21  1  0     0  0
 10 12  2  0     0  0
 11 24  1  0     0  0
 12 25  1  0     0  0
 13 15  2  0     0  0
 13 16  1  0     0  0
 14 17  2  0     0  0
 14 18  1  0     0  0
 14 23  1  0     0  0
 15 17  1  0     0  0
 16 18  2  0     0  0
 19 25  1  0     0  0
 20 26  1  0     0  0
 21 27  1  0     0  0
 24 28  1  0     0  0
 26 29  1  0     0  0
 27 29  1  0     0  0
 28 30  1  0     0  0
 30 31  1  0     0  0
M  END
> <standard_type>
pIC50

> <# Confs.>
25

> <canonical_smiles>
CCCCC1=NC(Cl)=C(CC(OC)=O)N1CC2=CC=C(NC(CCCC(O)=O)=O)C=C2

> <standard_relation>
=

> <Publication_ID>
nan

> <predicted_activity_value>
5.0

> <actual_activity_value>
4.494850021680094

> <Compound>
22

> <standard_units>
nM

> hash
1317428753005583636

$$$$
5_
XXILIB    08252103513D 0   0.00000     0.00000

 34 36  0     1  0            999 V2000
    5.0279   -1.4577    0.0746 Cl  0  0  0  0  0  1           0  0  0
   -2.1472   -1.5546   11.0239 Cl  0  0  0  0  0  1           0  0  0
   -5.1407    1.5652    6.5010 Cl  0  0  0  0  0  1           0  0  0
   -0.4952   -1.9691    8.3986 O   0  0  0  0  0  2           0  0  0
   -3.7638   -1.4981    5.3807 O   0  0  0  0  0  2           0  0  0
    1.5628   -2.8794   -1.3632 O   0  0  0  0  0  2           0  0  0
   -2.1429   -3.0876    7.3162 O   0  0  0  0  0  2           0  0  0
    1.4530   -0.0000   -0.0000 N   0  0  0  0  0  3           0  0  0
    3.5346    0.7633    0.0226 N   0  0  0  0  0  3           0  0  0
   -2.0717    0.0855    5.3315 N   0  0  0  0  0  3           0  0  0
    3.5489   -0.6082    0.0290 C   0  0  0  0  0  4           0  0  0
   -2.9439   -0.7376    9.7248 C   0  0  0  0  0  4           0  0  0
   -4.2676    0.6742    7.6979 C   0  0  0  0  0  4           0  0  0
    2.2664    1.1151    0.0000 C   0  0  0  0  0  4           0  0  0
    2.2632   -1.1242    0.0006 C   0  0  0  0  0  4           0  0  0
   -1.5848    0.0311    4.0103 C   0  0  0  0  0  4           0  0  0
   -2.6673   -1.0237    8.3804 C   0  0  0  0  0  4           0  0  0
   -3.3412   -0.3240    7.3609 C   0  0  0  0  0  4           0  0  0
   -0.5412    0.0000    1.3968 C   0  0  0  0  0  4           0  0  0
   -3.8750    0.2513   10.0495 C   0  0  0  0  0  4           0  0  0
   -4.5313    0.9567    9.0403 C   0  0  0  0  0  4           0  0  0
   -2.1115   -0.8415    3.0525 C   0  0  0  0  0  4           0  0  0
   -0.5384    0.8889    3.6576 C   0  0  0  0  0  4           0  0  0
   -1.5940   -0.8526    1.7540 C   0  0  0  0  0  4           0  0  0
   -0.0218    0.8739    2.3600 C   0  0  0  0  0  4           0  0  0
   -1.6625   -2.0537    8.0456 C   0  0  0  0  0  4           0  0  0
   -3.0836   -0.6375    5.9350 C   0  0  0  0  0  4           0  0  0
    1.7131   -2.4985   -0.0017 C   0  0  0  0  0  4           0  0  0
    1.0366   -4.1944   -1.4829 C   0  0  0  0  0  4           0  0  0
    0.0000    0.0000    0.0000 C   0  0  0  0  0  4           0  0  0
    1.7824    2.5210   -0.0190 C   0  0  0  0  0  4           0  0  0
    2.5491    3.3857   -1.0151 C   0  0  0  0  0  4           0  0  0
    2.4628    2.9124   -2.4664 C   0  0  0  0  0  4           0  0  0
    3.2393    3.7992   -3.4285 C   0  0  0  0  0  4           0  0  0
  1 11  1  0     0  0
  2 12  1  0     0  0
  3 13  1  0     0  0
  4 26  2  0     0  0
  5 27  2  0     0  0
  6 28  1  0     0  0
  6 29  1  0     0  0
  7 26  1  0     0  0
  8 14  1  0     0  0
  8 15  1  0     0  0
  8 30  1  0     0  0
  9 11  1  0     0  0
  9 14  2  0     0  0
 10 16  1  0     0  0
 10 27  1  0     0  0
 11 15  2  0     0  0
 12 17  2  0     0  0
 12 20  1  0     0  0
 13 18  2  0     0  0
 13 21  1  0     0  0
 14 31  1  0     0  0
 15 28  1  0     0  0
 16 22  2  0     0  0
 16 23  1  0     0  0
 17 18  1  0     0  0
 17 26  1  0     0  0
 18 27  1  0     0  0
 19 24  2  0     0  0
 19 25  1  0     0  0
 19 30  1  0     0  0
 20 21  2  0     0  0
 22 24  1  0     0  0
 23 25  2  0     0  0
 31 32  1  0     0  0
 32 33  1  0     0  0
 33 34  1  0     0  0
M  END
> <standard_type>
pIC50

> <# Confs.>
25

> <canonical_smiles>
ClC(N=C1CCCC)=C(COC)N1CC2=CC=C(NC(C3=C(Cl)C=CC(Cl)=C3C(O)=O)=O)C=C2

> <standard_relation>
=

> <Publication_ID>
nan

> <predicted_activity_value>
6.698970004336019

> <actual_activity_value>
7.376750709602099

> <Compound>
5

> <standard_units>
nM

> hash
7676056760595389010

$$$$
5_
XXILIB    08252103513D 0   0.00000     0.00000

 34 36  0     1  0            999 V2000
    5.0279   -1.4577    0.0746 Cl  0  0  0  0  0  1           0  0  0
   -5.5970    2.1991    9.5752 Cl  0  0  0  0  0  1           0  0  0
   -1.5018   -2.2617    8.0000 Cl  0  0  0  0  0  1           0  0  0
   -4.9482    2.6191    6.5441 O   0  0  0  0  0  2           0  0  0
   -3.7638   -1.4981    5.3807 O   0  0  0  0  0  2           0  0  0
    1.5628   -2.8794   -1.3632 O   0  0  0  0  0  2           0  0  0
   -5.7966    0.6194    5.8972 O   0  0  0  0  0  2           0  0  0
    1.4530   -0.0000   -0.0000 N   0  0  0  0  0  3           0  0  0
    3.5346    0.7633    0.0226 N   0  0  0  0  0  3           0  0  0
   -2.0717    0.0855    5.3315 N   0  0  0  0  0  3           0  0  0
    3.5489   -0.6082    0.0290 C   0  0  0  0  0  4           0  0  0
   -4.4743    0.9853    9.0694 C   0  0  0  0  0  4           0  0  0
   -2.6568   -1.0276    8.3632 C   0  0  0  0  0  4           0  0  0
    2.2664    1.1151    0.0000 C   0  0  0  0  0  4           0  0  0
    2.2632   -1.1242    0.0006 C   0  0  0  0  0  4           0  0  0
   -1.5848    0.0311    4.0103 C   0  0  0  0  0  4           0  0  0
   -4.2638    0.6784    7.7176 C   0  0  0  0  0  4           0  0  0
   -3.3412   -0.3240    7.3609 C   0  0  0  0  0  4           0  0  0
   -0.5412    0.0000    1.3968 C   0  0  0  0  0  4           0  0  0
   -3.7806    0.2854   10.0590 C   0  0  0  0  0  4           0  0  0
   -2.8785   -0.7193    9.7075 C   0  0  0  0  0  4           0  0  0
   -2.1115   -0.8415    3.0525 C   0  0  0  0  0  4           0  0  0
   -0.5384    0.8889    3.6576 C   0  0  0  0  0  4           0  0  0
   -1.5940   -0.8526    1.7540 C   0  0  0  0  0  4           0  0  0
   -0.0218    0.8739    2.3600 C   0  0  0  0  0  4           0  0  0
   -5.0202    1.4062    6.6781 C   0  0  0  0  0  4           0  0  0
   -3.0836   -0.6375    5.9350 C   0  0  0  0  0  4           0  0  0
    1.7131   -2.4985   -0.0017 C   0  0  0  0  0  4           0  0  0
    1.0366   -4.1944   -1.4829 C   0  0  0  0  0  4           0  0  0
    0.0000    0.0000    0.0000 C   0  0  0  0  0  4           0  0  0
    1.7824    2.5210   -0.0190 C   0  0  0  0  0  4           0  0  0
    2.5491    3.3857   -1.0151 C   0  0  0  0  0  4           0  0  0
    2.4628    2.9124   -2.4664 C   0  0  0  0  0  4           0  0  0
    3.2393    3.7992   -3.4285 C   0  0  0  0  0  4           0  0  0
  1 11  1  0     0  0
  2 12  1  0     0  0
  3 13  1  0     0  0
  4 26  2  0     0  0
  5 27  2  0     0  0
  6 28  1  0     0  0
  6 29  1  0     0  0
  7 26  1  0     0  0
  8 14  1  0     0  0
  8 15  1  0     0  0
  8 30  1  0     0  0
  9 11  1  0     0  0
  9 14  2  0     0  0
 10 16  1  0     0  0
 10 27  1  0     0  0
 11 15  2  0     0  0
 12 17  2  0     0  0
 12 20  1  0     0  0
 13 18  2  0     0  0
 13 21  1  0     0  0
 14 31  1  0     0  0
 15 28  1  0     0  0
 16 22  2  0     0  0
 16 23  1  0     0  0
 17 18  1  0     0  0
 17 26  1  0     0  0
 18 27  1  0     0  0
 19 24  2  0     0  0
 19 25  1  0     0  0
 19 30  1  0     0  0
 20 21  2  0     0  0
 22 24  1  0     0  0
 23 25  2  0     0  0
 31 32  1  0     0  0
 32 33  1  0     0  0
 33 34  1  0     0  0
M  END
> <standard_type>
pIC50

> <# Confs.>
25

> <canonical_smiles>
ClC(N=C1CCCC)=C(COC)N1CC2=CC=C(NC(C3=C(Cl)C=CC(Cl)=C3C(O)=O)=O)C=C2

> <standard_relation>
=

> <Publication_ID>
nan

> <predicted_activity_value>
6.698970004336019

> <actual_activity_value>
7.376750709602099

> <Compound>
5

> <standard_units>
nM

> hash
7676056760595389010

$$$$
5_
XXILIB    08252103513D 0   0.00000     0.00000

 34 36  0     1  0            999 V2000
    5.0279   -1.4577    0.0746 Cl  0  0  0  0  0  1           0  0  0
   -2.1472   -1.5546   11.0239 Cl  0  0  0  0  0  1           0  0  0
   -5.1407    1.5652    6.5010 Cl  0  0  0  0  0  1           0  0  0
   -0.4952   -1.9691    8.3986 O   0  0  0  0  0  2           0  0  0
   -3.7638   -1.4981    5.3807 O   0  0  0  0  0  2           0  0  0
    1.5628   -2.8794   -1.3632 O   0  0  0  0  0  2           0  0  0
   -2.1429   -3.0876    7.3162 O   0  0  0  0  0  2           0  0  0
    1.4530   -0.0000   -0.0000 N   0  0  0  0  0  3           0  0  0
    3.5346    0.7633    0.0226 N   0  0  0  0  0  3           0  0  0
   -2.0717    0.0855    5.3315 N   0  0  0  0  0  3           0  0  0
    3.5489   -0.6082    0.0290 C   0  0  0  0  0  4           0  0  0
   -2.9439   -0.7376    9.7248 C   0  0  0  0  0  4           0  0  0
   -4.2676    0.6742    7.6979 C   0  0  0  0  0  4           0  0  0
    2.2664    1.1151    0.0000 C   0  0  0  0  0  4           0  0  0
    2.2632   -1.1242    0.0006 C   0  0  0  0  0  4           0  0  0
   -1.5848    0.0311    4.0103 C   0  0  0  0  0  4           0  0  0
   -2.6673   -1.0237    8.3804 C   0  0  0  0  0  4           0  0  0
   -3.3412   -0.3240    7.3609 C   0  0  0  0  0  4           0  0  0
   -0.5412    0.0000    1.3968 C   0  0  0  0  0  4           0  0  0
   -3.8750    0.2513   10.0495 C   0  0  0  0  0  4           0  0  0
   -4.5313    0.9567    9.0403 C   0  0  0  0  0  4           0  0  0
   -2.1115   -0.8415    3.0525 C   0  0  0  0  0  4           0  0  0
   -0.5384    0.8889    3.6576 C   0  0  0  0  0  4           0  0  0
   -1.5940   -0.8526    1.7540 C   0  0  0  0  0  4           0  0  0
   -0.0218    0.8739    2.3600 C   0  0  0  0  0  4           0  0  0
   -1.6625   -2.0537    8.0456 C   0  0  0  0  0  4           0  0  0
   -3.0836   -0.6375    5.9350 C   0  0  0  0  0  4           0  0  0
    1.7131   -2.4985   -0.0017 C   0  0  0  0  0  4           0  0  0
    1.0366   -4.1944   -1.4829 C   0  0  0  0  0  4           0  0  0
    0.0000    0.0000    0.0000 C   0  0  0  0  0  4           0  0  0
    1.7824    2.5210   -0.0190 C   0  0  0  0  0  4           0  0  0
    2.5491    3.3857   -1.0151 C   0  0  0  0  0  4           0  0  0
    2.0916    4.8434   -1.0757 C   0  0  0  0  0  4           0  0  0
    2.8791    5.6728   -2.0792 C   0  0  0  0  0  4           0  0  0
  1 11  1  0     0  0
  2 12  1  0     0  0
  3 13  1  0     0  0
  4 26  2  0     0  0
  5 27  2  0     0  0
  6 28  1  0     0  0
  6 29  1  0     0  0
  7 26  1  0     0  0
  8 14  1  0     0  0
  8 15  1  0     0  0
  8 30  1  0     0  0
  9 11  1  0     0  0
  9 14  2  0     0  0
 10 16  1  0     0  0
 10 27  1  0     0  0
 11 15  2  0     0  0
 12 17  2  0     0  0
 12 20  1  0     0  0
 13 18  2  0     0  0
 13 21  1  0     0  0
 14 31  1  0     0  0
 15 28  1  0     0  0
 16 22  2  0     0  0
 16 23  1  0     0  0
 17 18  1  0     0  0
 17 26  1  0     0  0
 18 27  1  0     0  0
 19 24  2  0     0  0
 19 25  1  0     0  0
 19 30  1  0     0  0
 20 21  2  0     0  0
 22 24  1  0     0  0
 23 25  2  0     0  0
 31 32  1  0     0  0
 32 33  1  0     0  0
 33 34  1  0     0  0
M  END
> <standard_type>
pIC50

> <# Confs.>
25

> <canonical_smiles>
ClC(N=C1CCCC)=C(COC)N1CC2=CC=C(NC(C3=C(Cl)C=CC(Cl)=C3C(O)=O)=O)C=C2

> <standard_relation>
=

> <Publication_ID>
nan

> <predicted_activity_value>
6.698970004336019

> <actual_activity_value>
7.376750709602099

> <Compound>
5

> <standard_units>
nM

> hash
7676056760595389010

$$$$
5_
XXILIB    08252103513D 0   0.00000     0.00000

 34 36  0     1  0            999 V2000
    5.0279   -1.4577    0.0746 Cl  0  0  0  0  0  1           0  0  0
   -5.5970    2.1991    9.5752 Cl  0  0  0  0  0  1           0  0  0
   -1.5018   -2.2617    8.0000 Cl  0  0  0  0  0  1           0  0  0
   -4.9482    2.6191    6.5441 O   0  0  0  0  0  2           0  0  0
   -3.7638   -1.4981    5.3807 O   0  0  0  0  0  2           0  0  0
    1.5628   -2.8794   -1.3632 O   0  0  0  0  0  2           0  0  0
   -5.7966    0.6194    5.8972 O   0  0  0  0  0  2           0  0  0
    1.4530   -0.0000   -0.0000 N   0  0  0  0  0  3           0  0  0
    3.5346    0.7633    0.0226 N   0  0  0  0  0  3           0  0  0
   -2.0717    0.0855    5.3315 N   0  0  0  0  0  3           0  0  0
    3.5489   -0.6082    0.0290 C   0  0  0  0  0  4           0  0  0
   -4.4743    0.9853    9.0694 C   0  0  0  0  0  4           0  0  0
   -2.6568   -1.0276    8.3632 C   0  0  0  0  0  4           0  0  0
    2.2664    1.1151    0.0000 C   0  0  0  0  0  4           0  0  0
    2.2632   -1.1242    0.0006 C   0  0  0  0  0  4           0  0  0
   -1.5848    0.0311    4.0103 C   0  0  0  0  0  4           0  0  0
   -4.2638    0.6784    7.7176 C   0  0  0  0  0  4           0  0  0
   -3.3412   -0.3240    7.3609 C   0  0  0  0  0  4           0  0  0
   -0.5412    0.0000    1.3968 C   0  0  0  0  0  4           0  0  0
   -3.7806    0.2854   10.0590 C   0  0  0  0  0  4           0  0  0
   -2.8785   -0.7193    9.7075 C   0  0  0  0  0  4           0  0  0
   -2.1115   -0.8415    3.0525 C   0  0  0  0  0  4           0  0  0
   -0.5384    0.8889    3.6576 C   0  0  0  0  0  4           0  0  0
   -1.5940   -0.8526    1.7540 C   0  0  0  0  0  4           0  0  0
   -0.0218    0.8739    2.3600 C   0  0  0  0  0  4           0  0  0
   -5.0202    1.4062    6.6781 C   0  0  0  0  0  4           0  0  0
   -3.0836   -0.6375    5.9350 C   0  0  0  0  0  4           0  0  0
    1.7131   -2.4985   -0.0017 C   0  0  0  0  0  4           0  0  0
    1.0366   -4.1944   -1.4829 C   0  0  0  0  0  4           0  0  0
    0.0000    0.0000    0.0000 C   0  0  0  0  0  4           0  0  0
    1.7824    2.5210   -0.0190 C   0  0  0  0  0  4           0  0  0
    2.5491    3.3857   -1.0151 C   0  0  0  0  0  4           0  0  0
    2.0916    4.8434   -1.0757 C   0  0  0  0  0  4           0  0  0
    2.8791    5.6728   -2.0792 C   0  0  0  0  0  4           0  0  0
  1 11  1  0     0  0
  2 12  1  0     0  0
  3 13  1  0     0  0
  4 26  2  0     0  0
  5 27  2  0     0  0
  6 28  1  0     0  0
  6 29  1  0     0  0
  7 26  1  0     0  0
  8 14  1  0     0  0
  8 15  1  0     0  0
  8 30  1  0     0  0
  9 11  1  0     0  0
  9 14  2  0     0  0
 10 16  1  0     0  0
 10 27  1  0     0  0
 11 15  2  0     0  0
 12 17  2  0     0  0
 12 20  1  0     0  0
 13 18  2  0     0  0
 13 21  1  0     0  0
 14 31  1  0     0  0
 15 28  1  0     0  0
 16 22  2  0     0  0
 16 23  1  0     0  0
 17 18  1  0     0  0
 17 26  1  0     0  0
 18 27  1  0     0  0
 19 24  2  0     0  0
 19 25  1  0     0  0
 19 30  1  0     0  0
 20 21  2  0     0  0
 22 24  1  0     0  0
 23 25  2  0     0  0
 31 32  1  0     0  0
 32 33  1  0     0  0
 33 34  1  0     0  0
M  END
> <standard_type>
pIC50

> <# Confs.>
25

> <canonical_smiles>
ClC(N=C1CCCC)=C(COC)N1CC2=CC=C(NC(C3=C(Cl)C=CC(Cl)=C3C(O)=O)=O)C=C2

> <standard_relation>
=

> <Publication_ID>
nan

> <predicted_activity_value>
6.698970004336019

> <actual_activity_value>
7.376750709602099

> <Compound>
5

> <standard_units>
nM

> hash
7676056760595389010

$$$$
5_
XXILIB    08252103513D 0   0.00000     0.00000

 34 36  0     1  0            999 V2000
    5.0279   -1.4577    0.0746 Cl  0  0  0  0  0  1           0  0  0
   -2.1472   -1.5546   11.0239 Cl  0  0  0  0  0  1           0  0  0
   -5.1407    1.5652    6.5010 Cl  0  0  0  0  0  1           0  0  0
   -0.4952   -1.9691    8.3986 O   0  0  0  0  0  2           0  0  0
   -3.7638   -1.4981    5.3807 O   0  0  0  0  0  2           0  0  0
    1.5628   -2.8794   -1.3632 O   0  0  0  0  0  2           0  0  0
   -2.1429   -3.0876    7.3162 O   0  0  0  0  0  2           0  0  0
    1.4530   -0.0000   -0.0000 N   0  0  0  0  0  3           0  0  0
    3.5346    0.7633    0.0226 N   0  0  0  0  0  3           0  0  0
   -2.0717    0.0855    5.3315 N   0  0  0  0  0  3           0  0  0
    3.5489   -0.6082    0.0290 C   0  0  0  0  0  4           0  0  0
   -2.9439   -0.7376    9.7248 C   0  0  0  0  0  4           0  0  0
   -4.2676    0.6742    7.6979 C   0  0  0  0  0  4           0  0  0
    2.2664    1.1151    0.0000 C   0  0  0  0  0  4           0  0  0
    2.2632   -1.1242    0.0006 C   0  0  0  0  0  4           0  0  0
   -1.5848    0.0311    4.0103 C   0  0  0  0  0  4           0  0  0
   -2.6673   -1.0237    8.3804 C   0  0  0  0  0  4           0  0  0
   -3.3412   -0.3240    7.3609 C   0  0  0  0  0  4           0  0  0
   -0.5412    0.0000    1.3968 C   0  0  0  0  0  4           0  0  0
   -3.8750    0.2513   10.0495 C   0  0  0  0  0  4           0  0  0
   -4.5313    0.9567    9.0403 C   0  0  0  0  0  4           0  0  0
   -2.1115   -0.8415    3.0525 C   0  0  0  0  0  4           0  0  0
   -0.5384    0.8889    3.6576 C   0  0  0  0  0  4           0  0  0
   -1.5940   -0.8526    1.7540 C   0  0  0  0  0  4           0  0  0
   -0.0218    0.8739    2.3600 C   0  0  0  0  0  4           0  0  0
   -1.6625   -2.0537    8.0456 C   0  0  0  0  0  4           0  0  0
   -3.0836   -0.6375    5.9350 C   0  0  0  0  0  4           0  0  0
    1.7131   -2.4985   -0.0017 C   0  0  0  0  0  4           0  0  0
    1.0366   -4.1944   -1.4829 C   0  0  0  0  0  4           0  0  0
    0.0000    0.0000    0.0000 C   0  0  0  0  0  4           0  0  0
    1.7824    2.5210   -0.0190 C   0  0  0  0  0  4           0  0  0
    2.5241    3.4040    0.9801 C   0  0  0  0  0  4           0  0  0
    2.0655    4.8625    1.0025 C   0  0  0  0  0  4           0  0  0
    2.8277    5.7103    2.0101 C   0  0  0  0  0  4           0  0  0
  1 11  1  0     0  0
  2 12  1  0     0  0
  3 13  1  0     0  0
  4 26  2  0     0  0
  5 27  2  0     0  0
  6 28  1  0     0  0
  6 29  1  0     0  0
  7 26  1  0     0  0
  8 14  1  0     0  0
  8 15  1  0     0  0
  8 30  1  0     0  0
  9 11  1  0     0  0
  9 14  2  0     0  0
 10 16  1  0     0  0
 10 27  1  0     0  0
 11 15  2  0     0  0
 12 17  2  0     0  0
 12 20  1  0     0  0
 13 18  2  0     0  0
 13 21  1  0     0  0
 14 31  1  0     0  0
 15 28  1  0     0  0
 16 22  2  0     0  0
 16 23  1  0     0  0
 17 18  1  0     0  0
 17 26  1  0     0  0
 18 27  1  0     0  0
 19 24  2  0     0  0
 19 25  1  0     0  0
 19 30  1  0     0  0
 20 21  2  0     0  0
 22 24  1  0     0  0
 23 25  2  0     0  0
 31 32  1  0     0  0
 32 33  1  0     0  0
 33 34  1  0     0  0
M  END
> <standard_type>
pIC50

> <# Confs.>
25

> <canonical_smiles>
ClC(N=C1CCCC)=C(COC)N1CC2=CC=C(NC(C3=C(Cl)C=CC(Cl)=C3C(O)=O)=O)C=C2

> <standard_relation>
=

> <Publication_ID>
nan

> <predicted_activity_value>
6.698970004336019

> <actual_activity_value>
7.376750709602099

> <Compound>
5

> <standard_units>
nM

> hash
7676056760595389010

$$$$
5_
XXILIB    08252103513D 0   0.00000     0.00000

 34 36  0     1  0            999 V2000
    5.0279   -1.4577    0.0746 Cl  0  0  0  0  0  1           0  0  0
   -5.5970    2.1991    9.5752 Cl  0  0  0  0  0  1           0  0  0
   -1.5018   -2.2617    8.0000 Cl  0  0  0  0  0  1           0  0  0
   -4.9482    2.6191    6.5441 O   0  0  0  0  0  2           0  0  0
   -3.7638   -1.4981    5.3807 O   0  0  0  0  0  2           0  0  0
    1.5628   -2.8794   -1.3632 O   0  0  0  0  0  2           0  0  0
   -5.7966    0.6194    5.8972 O   0  0  0  0  0  2           0  0  0
    1.4530   -0.0000   -0.0000 N   0  0  0  0  0  3           0  0  0
    3.5346    0.7633    0.0226 N   0  0  0  0  0  3           0  0  0
   -2.0717    0.0855    5.3315 N   0  0  0  0  0  3           0  0  0
    3.5489   -0.6082    0.0290 C   0  0  0  0  0  4           0  0  0
   -4.4743    0.9853    9.0694 C   0  0  0  0  0  4           0  0  0
   -2.6568   -1.0276    8.3632 C   0  0  0  0  0  4           0  0  0
    2.2664    1.1151    0.0000 C   0  0  0  0  0  4           0  0  0
    2.2632   -1.1242    0.0006 C   0  0  0  0  0  4           0  0  0
   -1.5848    0.0311    4.0103 C   0  0  0  0  0  4           0  0  0
   -4.2638    0.6784    7.7176 C   0  0  0  0  0  4           0  0  0
   -3.3412   -0.3240    7.3609 C   0  0  0  0  0  4           0  0  0
   -0.5412    0.0000    1.3968 C   0  0  0  0  0  4           0  0  0
   -3.7806    0.2854   10.0590 C   0  0  0  0  0  4           0  0  0
   -2.8785   -0.7193    9.7075 C   0  0  0  0  0  4           0  0  0
   -2.1115   -0.8415    3.0525 C   0  0  0  0  0  4           0  0  0
   -0.5384    0.8889    3.6576 C   0  0  0  0  0  4           0  0  0
   -1.5940   -0.8526    1.7540 C   0  0  0  0  0  4           0  0  0
   -0.0218    0.8739    2.3600 C   0  0  0  0  0  4           0  0  0
   -5.0202    1.4062    6.6781 C   0  0  0  0  0  4           0  0  0
   -3.0836   -0.6375    5.9350 C   0  0  0  0  0  4           0  0  0
    1.7131   -2.4985   -0.0017 C   0  0  0  0  0  4           0  0  0
    1.0366   -4.1944   -1.4829 C   0  0  0  0  0  4           0  0  0
    0.0000    0.0000    0.0000 C   0  0  0  0  0  4           0  0  0
    1.7824    2.5210   -0.0190 C   0  0  0  0  0  4           0  0  0
    2.5241    3.4040    0.9801 C   0  0  0  0  0  4           0  0  0
    2.0655    4.8625    1.0025 C   0  0  0  0  0  4           0  0  0
    2.8277    5.7103    2.0101 C   0  0  0  0  0  4           0  0  0
  1 11  1  0     0  0
  2 12  1  0     0  0
  3 13  1  0     0  0
  4 26  2  0     0  0
  5 27  2  0     0  0
  6 28  1  0     0  0
  6 29  1  0     0  0
  7 26  1  0     0  0
  8 14  1  0     0  0
  8 15  1  0     0  0
  8 30  1  0     0  0
  9 11  1  0     0  0
  9 14  2  0     0  0
 10 16  1  0     0  0
 10 27  1  0     0  0
 11 15  2  0     0  0
 12 17  2  0     0  0
 12 20  1  0     0  0
 13 18  2  0     0  0
 13 21  1  0     0  0
 14 31  1  0     0  0
 15 28  1  0     0  0
 16 22  2  0     0  0
 16 23  1  0     0  0
 17 18  1  0     0  0
 17 26  1  0     0  0
 18 27  1  0     0  0
 19 24  2  0     0  0
 19 25  1  0     0  0
 19 30  1  0     0  0
 20 21  2  0     0  0
 22 24  1  0     0  0
 23 25  2  0     0  0
 31 32  1  0     0  0
 32 33  1  0     0  0
 33 34  1  0     0  0
M  END
> <standard_type>
pIC50

> <# Confs.>
25

> <canonical_smiles>
ClC(N=C1CCCC)=C(COC)N1CC2=CC=C(NC(C3=C(Cl)C=CC(Cl)=C3C(O)=O)=O)C=C2

> <standard_relation>
=

> <Publication_ID>
nan

> <predicted_activity_value>
6.698970004336019

> <actual_activity_value>
7.376750709602099

> <Compound>
5

> <standard_units>
nM

> hash
7676056760595389010

$$$$
5_
XXILIB    08252103513D 0   0.00000     0.00000

 34 36  0     1  0            999 V2000
    5.0279   -1.4577    0.0746 Cl  0  0  0  0  0  1           0  0  0
   -4.3868    2.8402    9.6528 Cl  0  0  0  0  0  1           0  0  0
   -2.7450   -2.9454    7.9258 Cl  0  0  0  0  0  1           0  0  0
   -2.9763    2.7733    6.3937 O   0  0  0  0  0  2           0  0  0
   -3.7638   -1.4981    5.3807 O   0  0  0  0  0  2           0  0  0
    1.5628   -2.8794   -1.3632 O   0  0  0  0  0  2           0  0  0
   -5.1465    2.1363    6.2459 O   0  0  0  0  0  2           0  0  0
    1.4530   -0.0000   -0.0000 N   0  0  0  0  0  3           0  0  0
    3.5346    0.7633    0.0226 N   0  0  0  0  0  3           0  0  0
   -2.0717    0.0855    5.3315 N   0  0  0  0  0  3           0  0  0
    3.5489   -0.6082    0.0290 C   0  0  0  0  0  4           0  0  0
   -3.9228    1.2663    9.1073 C   0  0  0  0  0  4           0  0  0
   -3.2090   -1.3298    8.3298 C   0  0  0  0  0  4           0  0  0
    2.2664    1.1151    0.0000 C   0  0  0  0  0  4           0  0  0
    2.2632   -1.1242    0.0006 C   0  0  0  0  0  4           0  0  0
   -1.5848    0.0311    4.0103 C   0  0  0  0  0  4           0  0  0
   -3.7125    0.9771    7.7515 C   0  0  0  0  0  4           0  0  0
   -3.3412   -0.3240    7.3609 C   0  0  0  0  0  4           0  0  0
   -0.5412    0.0000    1.3968 C   0  0  0  0  0  4           0  0  0
   -3.7793    0.2600   10.0649 C   0  0  0  0  0  4           0  0  0
   -3.4275   -1.0334    9.6774 C   0  0  0  0  0  4           0  0  0
   -2.1115   -0.8415    3.0525 C   0  0  0  0  0  4           0  0  0
   -0.5384    0.8889    3.6576 C   0  0  0  0  0  4           0  0  0
   -1.5940   -0.8526    1.7540 C   0  0  0  0  0  4           0  0  0
   -0.0218    0.8739    2.3600 C   0  0  0  0  0  4           0  0  0
   -3.8910    2.0412    6.7424 C   0  0  0  0  0  4           0  0  0
   -3.0836   -0.6375    5.9350 C   0  0  0  0  0  4           0  0  0
    1.7131   -2.4985   -0.0017 C   0  0  0  0  0  4           0  0  0
    1.0366   -4.1944   -1.4829 C   0  0  0  0  0  4           0  0  0
    0.0000    0.0000    0.0000 C   0  0  0  0  0  4           0  0  0
    1.7824    2.5210   -0.0190 C   0  0  0  0  0  4           0  0  0
    2.5491    3.3857   -1.0151 C   0  0  0  0  0  4           0  0  0
    2.4628    2.9124   -2.4664 C   0  0  0  0  0  4           0  0  0
    3.2393    3.7992   -3.4285 C   0  0  0  0  0  4           0  0  0
  1 11  1  0     0  0
  2 12  1  0     0  0
  3 13  1  0     0  0
  4 26  2  0     0  0
  5 27  2  0     0  0
  6 28  1  0     0  0
  6 29  1  0     0  0
  7 26  1  0     0  0
  8 14  1  0     0  0
  8 15  1  0     0  0
  8 30  1  0     0  0
  9 11  1  0     0  0
  9 14  2  0     0  0
 10 16  1  0     0  0
 10 27  1  0     0  0
 11 15  2  0     0  0
 12 17  2  0     0  0
 12 20  1  0     0  0
 13 18  2  0     0  0
 13 21  1  0     0  0
 14 31  1  0     0  0
 15 28  1  0     0  0
 16 22  2  0     0  0
 16 23  1  0     0  0
 17 18  1  0     0  0
 17 26  1  0     0  0
 18 27  1  0     0  0
 19 24  2  0     0  0
 19 25  1  0     0  0
 19 30  1  0     0  0
 20 21  2  0     0  0
 22 24  1  0     0  0
 23 25  2  0     0  0
 31 32  1  0     0  0
 32 33  1  0     0  0
 33 34  1  0     0  0
M  END
> <standard_type>
pIC50

> <# Confs.>
25

> <canonical_smiles>
ClC(N=C1CCCC)=C(COC)N1CC2=CC=C(NC(C3=C(Cl)C=CC(Cl)=C3C(O)=O)=O)C=C2

> <standard_relation>
=

> <Publication_ID>
nan

> <predicted_activity_value>
6.698970004336019

> <actual_activity_value>
7.376750709602099

> <Compound>
5

> <standard_units>
nM

> hash
7676056760595389010

$$$$
5_
XXILIB    08252103513D 0   0.00000     0.00000

 34 36  0     1  0            999 V2000
    5.0279   -1.4577    0.0746 Cl  0  0  0  0  0  1           0  0  0
   -2.1472   -1.5546   11.0239 Cl  0  0  0  0  0  1           0  0  0
   -5.1407    1.5652    6.5010 Cl  0  0  0  0  0  1           0  0  0
   -0.4952   -1.9691    8.3986 O   0  0  0  0  0  2           0  0  0
   -3.7638   -1.4981    5.3807 O   0  0  0  0  0  2           0  0  0
    1.5628   -2.8794   -1.3632 O   0  0  0  0  0  2           0  0  0
   -2.1429   -3.0876    7.3162 O   0  0  0  0  0  2           0  0  0
    1.4530   -0.0000   -0.0000 N   0  0  0  0  0  3           0  0  0
    3.5346    0.7633    0.0226 N   0  0  0  0  0  3           0  0  0
   -2.0717    0.0855    5.3315 N   0  0  0  0  0  3           0  0  0
    3.5489   -0.6082    0.0290 C   0  0  0  0  0  4           0  0  0
   -2.9439   -0.7376    9.7248 C   0  0  0  0  0  4           0  0  0
   -4.2676    0.6742    7.6979 C   0  0  0  0  0  4           0  0  0
    2.2664    1.1151    0.0000 C   0  0  0  0  0  4           0  0  0
    2.2632   -1.1242    0.0006 C   0  0  0  0  0  4           0  0  0
   -1.5848    0.0311    4.0103 C   0  0  0  0  0  4           0  0  0
   -2.6673   -1.0237    8.3804 C   0  0  0  0  0  4           0  0  0
   -3.3412   -0.3240    7.3609 C   0  0  0  0  0  4           0  0  0
   -0.5412    0.0000    1.3968 C   0  0  0  0  0  4           0  0  0
   -3.8750    0.2513   10.0495 C   0  0  0  0  0  4           0  0  0
   -4.5313    0.9567    9.0403 C   0  0  0  0  0  4           0  0  0
   -2.1115   -0.8415    3.0525 C   0  0  0  0  0  4           0  0  0
   -0.5384    0.8889    3.6576 C   0  0  0  0  0  4           0  0  0
   -1.5940   -0.8526    1.7540 C   0  0  0  0  0  4           0  0  0
   -0.0218    0.8739    2.3600 C   0  0  0  0  0  4           0  0  0
   -1.6625   -2.0537    8.0456 C   0  0  0  0  0  4           0  0  0
   -3.0836   -0.6375    5.9350 C   0  0  0  0  0  4           0  0  0
    1.7131   -2.4985   -0.0017 C   0  0  0  0  0  4           0  0  0
    1.0366   -4.1944   -1.4829 C   0  0  0  0  0  4           0  0  0
    0.0000    0.0000    0.0000 C   0  0  0  0  0  4           0  0  0
    1.7824    2.5210   -0.0190 C   0  0  0  0  0  4           0  0  0
    1.6111    3.0571   -1.4371 C   0  0  0  0  0  4           0  0  0
    1.1145    4.5010   -1.5154 C   0  0  0  0  0  4           0  0  0
   -0.2429    4.6998   -0.8574 C   0  0  0  0  0  4           0  0  0
  1 11  1  0     0  0
  2 12  1  0     0  0
  3 13  1  0     0  0
  4 26  2  0     0  0
  5 27  2  0     0  0
  6 28  1  0     0  0
  6 29  1  0     0  0
  7 26  1  0     0  0
  8 14  1  0     0  0
  8 15  1  0     0  0
  8 30  1  0     0  0
  9 11  1  0     0  0
  9 14  2  0     0  0
 10 16  1  0     0  0
 10 27  1  0     0  0
 11 15  2  0     0  0
 12 17  2  0     0  0
 12 20  1  0     0  0
 13 18  2  0     0  0
 13 21  1  0     0  0
 14 31  1  0     0  0
 15 28  1  0     0  0
 16 22  2  0     0  0
 16 23  1  0     0  0
 17 18  1  0     0  0
 17 26  1  0     0  0
 18 27  1  0     0  0
 19 24  2  0     0  0
 19 25  1  0     0  0
 19 30  1  0     0  0
 20 21  2  0     0  0
 22 24  1  0     0  0
 23 25  2  0     0  0
 31 32  1  0     0  0
 32 33  1  0     0  0
 33 34  1  0     0  0
M  END
> <standard_type>
pIC50

> <# Confs.>
25

> <canonical_smiles>
ClC(N=C1CCCC)=C(COC)N1CC2=CC=C(NC(C3=C(Cl)C=CC(Cl)=C3C(O)=O)=O)C=C2

> <standard_relation>
=

> <Publication_ID>
nan

> <predicted_activity_value>
6.698970004336019

> <actual_activity_value>
7.376750709602099

> <Compound>
5

> <standard_units>
nM

> hash
7676056760595389010

$$$$
5_
XXILIB    08252103513D 0   0.00000     0.00000

 34 36  0     1  0            999 V2000
    5.0279   -1.4577    0.0746 Cl  0  0  0  0  0  1           0  0  0
   -5.5970    2.1991    9.5752 Cl  0  0  0  0  0  1           0  0  0
   -1.5018   -2.2617    8.0000 Cl  0  0  0  0  0  1           0  0  0
   -4.9482    2.6191    6.5441 O   0  0  0  0  0  2           0  0  0
   -3.7638   -1.4981    5.3807 O   0  0  0  0  0  2           0  0  0
    1.5628   -2.8794   -1.3632 O   0  0  0  0  0  2           0  0  0
   -5.7966    0.6194    5.8972 O   0  0  0  0  0  2           0  0  0
    1.4530   -0.0000   -0.0000 N   0  0  0  0  0  3           0  0  0
    3.5346    0.7633    0.0226 N   0  0  0  0  0  3           0  0  0
   -2.0717    0.0855    5.3315 N   0  0  0  0  0  3           0  0  0
    3.5489   -0.6082    0.0290 C   0  0  0  0  0  4           0  0  0
   -4.4743    0.9853    9.0694 C   0  0  0  0  0  4           0  0  0
   -2.6568   -1.0276    8.3632 C   0  0  0  0  0  4           0  0  0
    2.2664    1.1151    0.0000 C   0  0  0  0  0  4           0  0  0
    2.2632   -1.1242    0.0006 C   0  0  0  0  0  4           0  0  0
   -1.5848    0.0311    4.0103 C   0  0  0  0  0  4           0  0  0
   -4.2638    0.6784    7.7176 C   0  0  0  0  0  4           0  0  0
   -3.3412   -0.3240    7.3609 C   0  0  0  0  0  4           0  0  0
   -0.5412    0.0000    1.3968 C   0  0  0  0  0  4           0  0  0
   -3.7806    0.2854   10.0590 C   0  0  0  0  0  4           0  0  0
   -2.8785   -0.7193    9.7075 C   0  0  0  0  0  4           0  0  0
   -2.1115   -0.8415    3.0525 C   0  0  0  0  0  4           0  0  0
   -0.5384    0.8889    3.6576 C   0  0  0  0  0  4           0  0  0
   -1.5940   -0.8526    1.7540 C   0  0  0  0  0  4           0  0  0
   -0.0218    0.8739    2.3600 C   0  0  0  0  0  4           0  0  0
   -5.0202    1.4062    6.6781 C   0  0  0  0  0  4           0  0  0
   -3.0836   -0.6375    5.9350 C   0  0  0  0  0  4           0  0  0
    1.7131   -2.4985   -0.0017 C   0  0  0  0  0  4           0  0  0
    1.0366   -4.1944   -1.4829 C   0  0  0  0  0  4           0  0  0
    0.0000    0.0000    0.0000 C   0  0  0  0  0  4           0  0  0
    1.7824    2.5210   -0.0190 C   0  0  0  0  0  4           0  0  0
    1.6111    3.0571   -1.4371 C   0  0  0  0  0  4           0  0  0
    1.1145    4.5010   -1.5154 C   0  0  0  0  0  4           0  0  0
   -0.2429    4.6998   -0.8574 C   0  0  0  0  0  4           0  0  0
  1 11  1  0     0  0
  2 12  1  0     0  0
  3 13  1  0     0  0
  4 26  2  0     0  0
  5 27  2  0     0  0
  6 28  1  0     0  0
  6 29  1  0     0  0
  7 26  1  0     0  0
  8 14  1  0     0  0
  8 15  1  0     0  0
  8 30  1  0     0  0
  9 11  1  0     0  0
  9 14  2  0     0  0
 10 16  1  0     0  0
 10 27  1  0     0  0
 11 15  2  0     0  0
 12 17  2  0     0  0
 12 20  1  0     0  0
 13 18  2  0     0  0
 13 21  1  0     0  0
 14 31  1  0     0  0
 15 28  1  0     0  0
 16 22  2  0     0  0
 16 23  1  0     0  0
 17 18  1  0     0  0
 17 26  1  0     0  0
 18 27  1  0     0  0
 19 24  2  0     0  0
 19 25  1  0     0  0
 19 30  1  0     0  0
 20 21  2  0     0  0
 22 24  1  0     0  0
 23 25  2  0     0  0
 31 32  1  0     0  0
 32 33  1  0     0  0
 33 34  1  0     0  0
M  END
> <standard_type>
pIC50

> <# Confs.>
25

> <canonical_smiles>
ClC(N=C1CCCC)=C(COC)N1CC2=CC=C(NC(C3=C(Cl)C=CC(Cl)=C3C(O)=O)=O)C=C2

> <standard_relation>
=

> <Publication_ID>
nan

> <predicted_activity_value>
6.698970004336019

> <actual_activity_value>
7.376750709602099

> <Compound>
5

> <standard_units>
nM

> hash
7676056760595389010

$$$$
5_
XXILIB    08252103513D 0   0.00000     0.00000

 34 36  0     1  0            999 V2000
    5.0279    1.4577   -0.0746 Cl  0  0  0  0  0  1           0  0  0
   -6.0069   -1.7596    9.4164 Cl  0  0  0  0  0  1           0  0  0
   -0.7822    1.4899    8.2789 Cl  0  0  0  0  0  1           0  0  0
   -5.2927   -2.2497    6.4106 O   0  0  0  0  0  2           0  0  0
   -0.9071   -1.5656    6.4876 O   0  0  0  0  0  2           0  0  0
    1.5574    2.8818   -1.3585 O   0  0  0  0  0  2           0  0  0
   -3.3208   -3.2745    6.8565 O   0  0  0  0  0  2           0  0  0
    1.4530    0.0000    0.0000 N   0  0  0  0  0  3           0  0  0
    3.5346   -0.7633   -0.0226 N   0  0  0  0  0  3           0  0  0
   -2.1462   -0.0055    5.3027 N   0  0  0  0  0  3           0  0  0
    3.5489    0.6082   -0.0290 C   0  0  0  0  0  4           0  0  0
   -4.5581   -0.8954    9.0370 C   0  0  0  0  0  4           0  0  0
   -2.2060    0.5442    8.5378 C   0  0  0  0  0  4           0  0  0
    2.2664   -1.1151    0.0000 C   0  0  0  0  0  4           0  0  0
    2.2632    1.1242   -0.0006 C   0  0  0  0  0  4           0  0  0
   -1.5869   -0.0289    4.0095 C   0  0  0  0  0  4           0  0  0
   -3.7891   -1.1875    7.9015 C   0  0  0  0  0  4           0  0  0
   -2.6138   -0.4561    7.6428 C   0  0  0  0  0  4           0  0  0
   -0.5412    0.0000    1.3968 C   0  0  0  0  0  4           0  0  0
   -4.1483    0.1089    9.9166 C   0  0  0  0  0  4           0  0  0
   -2.9753    0.8232    9.6700 C   0  0  0  0  0  4           0  0  0
   -0.5193   -0.8661    3.6694 C   0  0  0  0  0  4           0  0  0
   -2.1314    0.8194    3.0404 C   0  0  0  0  0  4           0  0  0
   -0.0039   -0.8526    2.3701 C   0  0  0  0  0  4           0  0  0
   -1.6127    0.8323    1.7436 C   0  0  0  0  0  4           0  0  0
   -4.2162   -2.2684    6.9896 C   0  0  0  0  0  4           0  0  0
   -1.8074   -0.7311    6.4295 C   0  0  0  0  0  4           0  0  0
    1.7131    2.4985    0.0017 C   0  0  0  0  0  4           0  0  0
    1.0308    4.1970   -1.4739 C   0  0  0  0  0  4           0  0  0
    0.0000    0.0000    0.0000 C   0  0  0  0  0  4           0  0  0
    1.7824   -2.5210    0.0190 C   0  0  0  0  0  4           0  0  0
    2.5241   -3.4040   -0.9801 C   0  0  0  0  0  4           0  0  0
    2.4013   -2.9573   -2.4372 C   0  0  0  0  0  4           0  0  0
    3.1535   -3.8618   -3.4021 C   0  0  0  0  0  4           0  0  0
  1 11  1  0     0  0
  2 12  1  0     0  0
  3 13  1  0     0  0
  4 26  2  0     0  0
  5 27  2  0     0  0
  6 28  1  0     0  0
  6 29  1  0     0  0
  7 26  1  0     0  0
  8 14  1  0     0  0
  8 15  1  0     0  0
  8 30  1  0     0  0
  9 11  1  0     0  0
  9 14  2  0     0  0
 10 16  1  0     0  0
 10 27  1  0     0  0
 11 15  2  0     0  0
 12 17  2  0     0  0
 12 20  1  0     0  0
 13 18  2  0     0  0
 13 21  1  0     0  0
 14 31  1  0     0  0
 15 28  1  0     0  0
 16 22  2  0     0  0
 16 23  1  0     0  0
 17 18  1  0     0  0
 17 26  1  0     0  0
 18 27  1  0     0  0
 19 24  2  0     0  0
 19 25  1  0     0  0
 19 30  1  0     0  0
 20 21  2  0     0  0
 22 24  1  0     0  0
 23 25  2  0     0  0
 31 32  1  0     0  0
 32 33  1  0     0  0
 33 34  1  0     0  0
M  END
> <standard_type>
pIC50

> <# Confs.>
25

> <canonical_smiles>
ClC(N=C1CCCC)=C(COC)N1CC2=CC=C(NC(C3=C(Cl)C=CC(Cl)=C3C(O)=O)=O)C=C2

> <standard_relation>
=

> <Publication_ID>
nan

> <predicted_activity_value>
6.698970004336019

> <actual_activity_value>
7.376750709602099

> <Compound>
5

> <standard_units>
nM

> hash
7676056760595389010

$$$$
5_
XXILIB    08252103513D 0   0.00000     0.00000

 34 36  0     1  0            999 V2000
    5.0279   -1.4577    0.0746 Cl  0  0  0  0  0  1           0  0  0
   -4.3868    2.8402    9.6528 Cl  0  0  0  0  0  1           0  0  0
   -2.7450   -2.9454    7.9258 Cl  0  0  0  0  0  1           0  0  0
   -2.9763    2.7733    6.3937 O   0  0  0  0  0  2           0  0  0
   -3.7638   -1.4981    5.3807 O   0  0  0  0  0  2           0  0  0
    1.5628   -2.8794   -1.3632 O   0  0  0  0  0  2           0  0  0
   -5.1465    2.1363    6.2459 O   0  0  0  0  0  2           0  0  0
    1.4530   -0.0000   -0.0000 N   0  0  0  0  0  3           0  0  0
    3.5346    0.7633    0.0226 N   0  0  0  0  0  3           0  0  0
   -2.0717    0.0855    5.3315 N   0  0  0  0  0  3           0  0  0
    3.5489   -0.6082    0.0290 C   0  0  0  0  0  4           0  0  0
   -3.9228    1.2663    9.1073 C   0  0  0  0  0  4           0  0  0
   -3.2090   -1.3298    8.3298 C   0  0  0  0  0  4           0  0  0
    2.2664    1.1151    0.0000 C   0  0  0  0  0  4           0  0  0
    2.2632   -1.1242    0.0006 C   0  0  0  0  0  4           0  0  0
   -1.5848    0.0311    4.0103 C   0  0  0  0  0  4           0  0  0
   -3.7125    0.9771    7.7515 C   0  0  0  0  0  4           0  0  0
   -3.3412   -0.3240    7.3609 C   0  0  0  0  0  4           0  0  0
   -0.5412    0.0000    1.3968 C   0  0  0  0  0  4           0  0  0
   -3.7793    0.2600   10.0649 C   0  0  0  0  0  4           0  0  0
   -3.4275   -1.0334    9.6774 C   0  0  0  0  0  4           0  0  0
   -2.1115   -0.8415    3.0525 C   0  0  0  0  0  4           0  0  0
   -0.5384    0.8889    3.6576 C   0  0  0  0  0  4           0  0  0
   -1.5940   -0.8526    1.7540 C   0  0  0  0  0  4           0  0  0
   -0.0218    0.8739    2.3600 C   0  0  0  0  0  4           0  0  0
   -3.8910    2.0412    6.7424 C   0  0  0  0  0  4           0  0  0
   -3.0836   -0.6375    5.9350 C   0  0  0  0  0  4           0  0  0
    1.7131   -2.4985   -0.0017 C   0  0  0  0  0  4           0  0  0
    1.0366   -4.1944   -1.4829 C   0  0  0  0  0  4           0  0  0
    0.0000    0.0000    0.0000 C   0  0  0  0  0  4           0  0  0
    1.7824    2.5210   -0.0190 C   0  0  0  0  0  4           0  0  0
    2.5491    3.3857   -1.0151 C   0  0  0  0  0  4           0  0  0
    2.0916    4.8434   -1.0757 C   0  0  0  0  0  4           0  0  0
    2.8791    5.6728   -2.0792 C   0  0  0  0  0  4           0  0  0
  1 11  1  0     0  0
  2 12  1  0     0  0
  3 13  1  0     0  0
  4 26  2  0     0  0
  5 27  2  0     0  0
  6 28  1  0     0  0
  6 29  1  0     0  0
  7 26  1  0     0  0
  8 14  1  0     0  0
  8 15  1  0     0  0
  8 30  1  0     0  0
  9 11  1  0     0  0
  9 14  2  0     0  0
 10 16  1  0     0  0
 10 27  1  0     0  0
 11 15  2  0     0  0
 12 17  2  0     0  0
 12 20  1  0     0  0
 13 18  2  0     0  0
 13 21  1  0     0  0
 14 31  1  0     0  0
 15 28  1  0     0  0
 16 22  2  0     0  0
 16 23  1  0     0  0
 17 18  1  0     0  0
 17 26  1  0     0  0
 18 27  1  0     0  0
 19 24  2  0     0  0
 19 25  1  0     0  0
 19 30  1  0     0  0
 20 21  2  0     0  0
 22 24  1  0     0  0
 23 25  2  0     0  0
 31 32  1  0     0  0
 32 33  1  0     0  0
 33 34  1  0     0  0
M  END
> <standard_type>
pIC50

> <# Confs.>
25

> <canonical_smiles>
ClC(N=C1CCCC)=C(COC)N1CC2=CC=C(NC(C3=C(Cl)C=CC(Cl)=C3C(O)=O)=O)C=C2

> <standard_relation>
=

> <Publication_ID>
nan

> <predicted_activity_value>
6.698970004336019

> <actual_activity_value>
7.376750709602099

> <Compound>
5

> <standard_units>
nM

> hash
7676056760595389010

$$$$
5_
XXILIB    08252103513D 0   0.00000     0.00000

 34 36  0     1  0            999 V2000
    5.0279    1.4577   -0.0746 Cl  0  0  0  0  0  1           0  0  0
   -6.0069   -1.7596    9.4164 Cl  0  0  0  0  0  1           0  0  0
   -0.7822    1.4899    8.2789 Cl  0  0  0  0  0  1           0  0  0
   -5.2927   -2.2497    6.4106 O   0  0  0  0  0  2           0  0  0
   -0.9071   -1.5656    6.4876 O   0  0  0  0  0  2           0  0  0
    1.5574    2.8818   -1.3585 O   0  0  0  0  0  2           0  0  0
   -3.3208   -3.2745    6.8565 O   0  0  0  0  0  2           0  0  0
    1.4530    0.0000    0.0000 N   0  0  0  0  0  3           0  0  0
    3.5346   -0.7633   -0.0226 N   0  0  0  0  0  3           0  0  0
   -2.1462   -0.0055    5.3027 N   0  0  0  0  0  3           0  0  0
    3.5489    0.6082   -0.0290 C   0  0  0  0  0  4           0  0  0
   -4.5581   -0.8954    9.0370 C   0  0  0  0  0  4           0  0  0
   -2.2060    0.5442    8.5378 C   0  0  0  0  0  4           0  0  0
    2.2664   -1.1151    0.0000 C   0  0  0  0  0  4           0  0  0
    2.2632    1.1242   -0.0006 C   0  0  0  0  0  4           0  0  0
   -1.5869   -0.0289    4.0095 C   0  0  0  0  0  4           0  0  0
   -3.7891   -1.1875    7.9015 C   0  0  0  0  0  4           0  0  0
   -2.6138   -0.4561    7.6428 C   0  0  0  0  0  4           0  0  0
   -0.5412    0.0000    1.3968 C   0  0  0  0  0  4           0  0  0
   -4.1483    0.1089    9.9166 C   0  0  0  0  0  4           0  0  0
   -2.9753    0.8232    9.6700 C   0  0  0  0  0  4           0  0  0
   -0.5193   -0.8661    3.6694 C   0  0  0  0  0  4           0  0  0
   -2.1314    0.8194    3.0404 C   0  0  0  0  0  4           0  0  0
   -0.0039   -0.8526    2.3701 C   0  0  0  0  0  4           0  0  0
   -1.6127    0.8323    1.7436 C   0  0  0  0  0  4           0  0  0
   -4.2162   -2.2684    6.9896 C   0  0  0  0  0  4           0  0  0
   -1.8074   -0.7311    6.4295 C   0  0  0  0  0  4           0  0  0
    1.7131    2.4985    0.0017 C   0  0  0  0  0  4           0  0  0
    1.0308    4.1970   -1.4739 C   0  0  0  0  0  4           0  0  0
    0.0000    0.0000    0.0000 C   0  0  0  0  0  4           0  0  0
    1.7824   -2.5210    0.0190 C   0  0  0  0  0  4           0  0  0
    2.5241   -3.4040   -0.9801 C   0  0  0  0  0  4           0  0  0
    2.0655   -4.8625   -1.0025 C   0  0  0  0  0  4           0  0  0
    2.8277   -5.7103   -2.0101 C   0  0  0  0  0  4           0  0  0
  1 11  1  0     0  0
  2 12  1  0     0  0
  3 13  1  0     0  0
  4 26  2  0     0  0
  5 27  2  0     0  0
  6 28  1  0     0  0
  6 29  1  0     0  0
  7 26  1  0     0  0
  8 14  1  0     0  0
  8 15  1  0     0  0
  8 30  1  0     0  0
  9 11  1  0     0  0
  9 14  2  0     0  0
 10 16  1  0     0  0
 10 27  1  0     0  0
 11 15  2  0     0  0
 12 17  2  0     0  0
 12 20  1  0     0  0
 13 18  2  0     0  0
 13 21  1  0     0  0
 14 31  1  0     0  0
 15 28  1  0     0  0
 16 22  2  0     0  0
 16 23  1  0     0  0
 17 18  1  0     0  0
 17 26  1  0     0  0
 18 27  1  0     0  0
 19 24  2  0     0  0
 19 25  1  0     0  0
 19 30  1  0     0  0
 20 21  2  0     0  0
 22 24  1  0     0  0
 23 25  2  0     0  0
 31 32  1  0     0  0
 32 33  1  0     0  0
 33 34  1  0     0  0
M  END
> <standard_type>
pIC50

> <# Confs.>
25

> <canonical_smiles>
ClC(N=C1CCCC)=C(COC)N1CC2=CC=C(NC(C3=C(Cl)C=CC(Cl)=C3C(O)=O)=O)C=C2

> <standard_relation>
=

> <Publication_ID>
nan

> <predicted_activity_value>
6.698970004336019

> <actual_activity_value>
7.376750709602099

> <Compound>
5

> <standard_units>
nM

> hash
7676056760595389010

$$$$
5_
XXILIB    08252103513D 0   0.00000     0.00000

 34 36  0     1  0            999 V2000
    5.0279   -1.4577    0.0746 Cl  0  0  0  0  0  1           0  0  0
   -4.3868    2.8402    9.6528 Cl  0  0  0  0  0  1           0  0  0
   -2.7450   -2.9454    7.9258 Cl  0  0  0  0  0  1           0  0  0
   -2.9763    2.7733    6.3937 O   0  0  0  0  0  2           0  0  0
   -3.7638   -1.4981    5.3807 O   0  0  0  0  0  2           0  0  0
    1.5628   -2.8794   -1.3632 O   0  0  0  0  0  2           0  0  0
   -5.1465    2.1363    6.2459 O   0  0  0  0  0  2           0  0  0
    1.4530   -0.0000   -0.0000 N   0  0  0  0  0  3           0  0  0
    3.5346    0.7633    0.0226 N   0  0  0  0  0  3           0  0  0
   -2.0717    0.0855    5.3315 N   0  0  0  0  0  3           0  0  0
    3.5489   -0.6082    0.0290 C   0  0  0  0  0  4           0  0  0
   -3.9228    1.2663    9.1073 C   0  0  0  0  0  4           0  0  0
   -3.2090   -1.3298    8.3298 C   0  0  0  0  0  4           0  0  0
    2.2664    1.1151    0.0000 C   0  0  0  0  0  4           0  0  0
    2.2632   -1.1242    0.0006 C   0  0  0  0  0  4           0  0  0
   -1.5848    0.0311    4.0103 C   0  0  0  0  0  4           0  0  0
   -3.7125    0.9771    7.7515 C   0  0  0  0  0  4           0  0  0
   -3.3412   -0.3240    7.3609 C   0  0  0  0  0  4           0  0  0
   -0.5412    0.0000    1.3968 C   0  0  0  0  0  4           0  0  0
   -3.7793    0.2600   10.0649 C   0  0  0  0  0  4           0  0  0
   -3.4275   -1.0334    9.6774 C   0  0  0  0  0  4           0  0  0
   -2.1115   -0.8415    3.0525 C   0  0  0  0  0  4           0  0  0
   -0.5384    0.8889    3.6576 C   0  0  0  0  0  4           0  0  0
   -1.5940   -0.8526    1.7540 C   0  0  0  0  0  4           0  0  0
   -0.0218    0.8739    2.3600 C   0  0  0  0  0  4           0  0  0
   -3.8910    2.0412    6.7424 C   0  0  0  0  0  4           0  0  0
   -3.0836   -0.6375    5.9350 C   0  0  0  0  0  4           0  0  0
    1.7131   -2.4985   -0.0017 C   0  0  0  0  0  4           0  0  0
    1.0366   -4.1944   -1.4829 C   0  0  0  0  0  4           0  0  0
    0.0000    0.0000    0.0000 C   0  0  0  0  0  4           0  0  0
    1.7824    2.5210   -0.0190 C   0  0  0  0  0  4           0  0  0
    2.5241    3.4040    0.9801 C   0  0  0  0  0  4           0  0  0
    2.0655    4.8625    1.0025 C   0  0  0  0  0  4           0  0  0
    2.8277    5.7103    2.0101 C   0  0  0  0  0  4           0  0  0
  1 11  1  0     0  0
  2 12  1  0     0  0
  3 13  1  0     0  0
  4 26  2  0     0  0
  5 27  2  0     0  0
  6 28  1  0     0  0
  6 29  1  0     0  0
  7 26  1  0     0  0
  8 14  1  0     0  0
  8 15  1  0     0  0
  8 30  1  0     0  0
  9 11  1  0     0  0
  9 14  2  0     0  0
 10 16  1  0     0  0
 10 27  1  0     0  0
 11 15  2  0     0  0
 12 17  2  0     0  0
 12 20  1  0     0  0
 13 18  2  0     0  0
 13 21  1  0     0  0
 14 31  1  0     0  0
 15 28  1  0     0  0
 16 22  2  0     0  0
 16 23  1  0     0  0
 17 18  1  0     0  0
 17 26  1  0     0  0
 18 27  1  0     0  0
 19 24  2  0     0  0
 19 25  1  0     0  0
 19 30  1  0     0  0
 20 21  2  0     0  0
 22 24  1  0     0  0
 23 25  2  0     0  0
 31 32  1  0     0  0
 32 33  1  0     0  0
 33 34  1  0     0  0
M  END
> <standard_type>
pIC50

> <# Confs.>
25

> <canonical_smiles>
ClC(N=C1CCCC)=C(COC)N1CC2=CC=C(NC(C3=C(Cl)C=CC(Cl)=C3C(O)=O)=O)C=C2

> <standard_relation>
=

> <Publication_ID>
nan

> <predicted_activity_value>
6.698970004336019

> <actual_activity_value>
7.376750709602099

> <Compound>
5

> <standard_units>
nM

> hash
7676056760595389010

$$$$
5_
XXILIB    08252103513D 0   0.00000     0.00000

 34 36  0     1  0            999 V2000
    5.0279    1.4577   -0.0746 Cl  0  0  0  0  0  1           0  0  0
   -6.0069   -1.7596    9.4164 Cl  0  0  0  0  0  1           0  0  0
   -0.7822    1.4899    8.2789 Cl  0  0  0  0  0  1           0  0  0
   -5.2927   -2.2497    6.4106 O   0  0  0  0  0  2           0  0  0
   -0.9071   -1.5656    6.4876 O   0  0  0  0  0  2           0  0  0
    1.5574    2.8818   -1.3585 O   0  0  0  0  0  2           0  0  0
   -3.3208   -3.2745    6.8565 O   0  0  0  0  0  2           0  0  0
    1.4530    0.0000    0.0000 N   0  0  0  0  0  3           0  0  0
    3.5346   -0.7633   -0.0226 N   0  0  0  0  0  3           0  0  0
   -2.1462   -0.0055    5.3027 N   0  0  0  0  0  3           0  0  0
    3.5489    0.6082   -0.0290 C   0  0  0  0  0  4           0  0  0
   -4.5581   -0.8954    9.0370 C   0  0  0  0  0  4           0  0  0
   -2.2060    0.5442    8.5378 C   0  0  0  0  0  4           0  0  0
    2.2664   -1.1151    0.0000 C   0  0  0  0  0  4           0  0  0
    2.2632    1.1242   -0.0006 C   0  0  0  0  0  4           0  0  0
   -1.5869   -0.0289    4.0095 C   0  0  0  0  0  4           0  0  0
   -3.7891   -1.1875    7.9015 C   0  0  0  0  0  4           0  0  0
   -2.6138   -0.4561    7.6428 C   0  0  0  0  0  4           0  0  0
   -0.5412    0.0000    1.3968 C   0  0  0  0  0  4           0  0  0
   -4.1483    0.1089    9.9166 C   0  0  0  0  0  4           0  0  0
   -2.9753    0.8232    9.6700 C   0  0  0  0  0  4           0  0  0
   -0.5193   -0.8661    3.6694 C   0  0  0  0  0  4           0  0  0
   -2.1314    0.8194    3.0404 C   0  0  0  0  0  4           0  0  0
   -0.0039   -0.8526    2.3701 C   0  0  0  0  0  4           0  0  0
   -1.6127    0.8323    1.7436 C   0  0  0  0  0  4           0  0  0
   -4.2162   -2.2684    6.9896 C   0  0  0  0  0  4           0  0  0
   -1.8074   -0.7311    6.4295 C   0  0  0  0  0  4           0  0  0
    1.7131    2.4985    0.0017 C   0  0  0  0  0  4           0  0  0
    1.0308    4.1970   -1.4739 C   0  0  0  0  0  4           0  0  0
    0.0000    0.0000    0.0000 C   0  0  0  0  0  4           0  0  0
    1.7824   -2.5210    0.0190 C   0  0  0  0  0  4           0  0  0
    2.5491   -3.3857    1.0151 C   0  0  0  0  0  4           0  0  0
    2.0916   -4.8434    1.0757 C   0  0  0  0  0  4           0  0  0
    2.8791   -5.6728    2.0792 C   0  0  0  0  0  4           0  0  0
  1 11  1  0     0  0
  2 12  1  0     0  0
  3 13  1  0     0  0
  4 26  2  0     0  0
  5 27  2  0     0  0
  6 28  1  0     0  0
  6 29  1  0     0  0
  7 26  1  0     0  0
  8 14  1  0     0  0
  8 15  1  0     0  0
  8 30  1  0     0  0
  9 11  1  0     0  0
  9 14  2  0     0  0
 10 16  1  0     0  0
 10 27  1  0     0  0
 11 15  2  0     0  0
 12 17  2  0     0  0
 12 20  1  0     0  0
 13 18  2  0     0  0
 13 21  1  0     0  0
 14 31  1  0     0  0
 15 28  1  0     0  0
 16 22  2  0     0  0
 16 23  1  0     0  0
 17 18  1  0     0  0
 17 26  1  0     0  0
 18 27  1  0     0  0
 19 24  2  0     0  0
 19 25  1  0     0  0
 19 30  1  0     0  0
 20 21  2  0     0  0
 22 24  1  0     0  0
 23 25  2  0     0  0
 31 32  1  0     0  0
 32 33  1  0     0  0
 33 34  1  0     0  0
M  END
> <standard_type>
pIC50

> <# Confs.>
25

> <canonical_smiles>
ClC(N=C1CCCC)=C(COC)N1CC2=CC=C(NC(C3=C(Cl)C=CC(Cl)=C3C(O)=O)=O)C=C2

> <standard_relation>
=

> <Publication_ID>
nan

> <predicted_activity_value>
6.698970004336019

> <actual_activity_value>
7.376750709602099

> <Compound>
5

> <standard_units>
nM

> hash
7676056760595389010

$$$$
5_
XXILIB    08252103513D 0   0.00000     0.00000

 34 36  0     1  0            999 V2000
    5.0279   -1.4577    0.0746 Cl  0  0  0  0  0  1           0  0  0
   -3.3575   -2.1956   10.9462 Cl  0  0  0  0  0  1           0  0  0
   -3.8975    2.2490    6.5753 Cl  0  0  0  0  0  1           0  0  0
   -1.6165   -3.0245    7.9617 O   0  0  0  0  0  2           0  0  0
   -3.7638   -1.4981    5.3807 O   0  0  0  0  0  2           0  0  0
    1.5628   -2.8794   -1.3632 O   0  0  0  0  0  2           0  0  0
   -3.8070   -3.5271    7.6684 O   0  0  0  0  0  2           0  0  0
    1.4530   -0.0000   -0.0000 N   0  0  0  0  0  3           0  0  0
    3.5346    0.7633    0.0226 N   0  0  0  0  0  3           0  0  0
   -2.0717    0.0855    5.3315 N   0  0  0  0  0  3           0  0  0
    3.5489   -0.6082    0.0290 C   0  0  0  0  0  4           0  0  0
   -3.4954   -1.0186    9.6870 C   0  0  0  0  0  4           0  0  0
   -3.7153    0.9764    7.7312 C   0  0  0  0  0  4           0  0  0
    2.2664    1.1151    0.0000 C   0  0  0  0  0  4           0  0  0
    2.2632   -1.1242    0.0006 C   0  0  0  0  0  4           0  0  0
   -1.5848    0.0311    4.0103 C   0  0  0  0  0  4           0  0  0
   -3.2186   -1.3223    8.3465 C   0  0  0  0  0  4           0  0  0
   -3.3412   -0.3240    7.3609 C   0  0  0  0  0  4           0  0  0
   -0.5412    0.0000    1.3968 C   0  0  0  0  0  4           0  0  0
   -3.8764    0.2767   10.0437 C   0  0  0  0  0  4           0  0  0
   -3.9823    1.2709    9.0704 C   0  0  0  0  0  4           0  0  0
   -2.1115   -0.8415    3.0525 C   0  0  0  0  0  4           0  0  0
   -0.5384    0.8889    3.6576 C   0  0  0  0  0  4           0  0  0
   -1.5940   -0.8526    1.7540 C   0  0  0  0  0  4           0  0  0
   -0.0218    0.8739    2.3600 C   0  0  0  0  0  4           0  0  0
   -2.7917   -2.6887    7.9812 C   0  0  0  0  0  4           0  0  0
   -3.0836   -0.6375    5.9350 C   0  0  0  0  0  4           0  0  0
    1.7131   -2.4985   -0.0017 C   0  0  0  0  0  4           0  0  0
    1.0366   -4.1944   -1.4829 C   0  0  0  0  0  4           0  0  0
    0.0000    0.0000    0.0000 C   0  0  0  0  0  4           0  0  0
    1.7824    2.5210   -0.0190 C   0  0  0  0  0  4           0  0  0
    2.5491    3.3857   -1.0151 C   0  0  0  0  0  4           0  0  0
    2.4628    2.9124   -2.4664 C   0  0  0  0  0  4           0  0  0
    3.2393    3.7992   -3.4285 C   0  0  0  0  0  4           0  0  0
  1 11  1  0     0  0
  2 12  1  0     0  0
  3 13  1  0     0  0
  4 26  2  0     0  0
  5 27  2  0     0  0
  6 28  1  0     0  0
  6 29  1  0     0  0
  7 26  1  0     0  0
  8 14  1  0     0  0
  8 15  1  0     0  0
  8 30  1  0     0  0
  9 11  1  0     0  0
  9 14  2  0     0  0
 10 16  1  0     0  0
 10 27  1  0     0  0
 11 15  2  0     0  0
 12 17  2  0     0  0
 12 20  1  0     0  0
 13 18  2  0     0  0
 13 21  1  0     0  0
 14 31  1  0     0  0
 15 28  1  0     0  0
 16 22  2  0     0  0
 16 23  1  0     0  0
 17 18  1  0     0  0
 17 26  1  0     0  0
 18 27  1  0     0  0
 19 24  2  0     0  0
 19 25  1  0     0  0
 19 30  1  0     0  0
 20 21  2  0     0  0
 22 24  1  0     0  0
 23 25  2  0     0  0
 31 32  1  0     0  0
 32 33  1  0     0  0
 33 34  1  0     0  0
M  END
> <standard_type>
pIC50

> <# Confs.>
25

> <canonical_smiles>
ClC(N=C1CCCC)=C(COC)N1CC2=CC=C(NC(C3=C(Cl)C=CC(Cl)=C3C(O)=O)=O)C=C2

> <standard_relation>
=

> <Publication_ID>
nan

> <predicted_activity_value>
6.698970004336019

> <actual_activity_value>
7.376750709602099

> <Compound>
5

> <standard_units>
nM

> hash
7676056760595389010

$$$$
5_
XXILIB    08252103513D 0   0.00000     0.00000

 34 36  0     1  0            999 V2000
    5.0279   -1.4577    0.0746 Cl  0  0  0  0  0  1           0  0  0
   -3.3575   -2.1956   10.9462 Cl  0  0  0  0  0  1           0  0  0
   -3.8975    2.2490    6.5753 Cl  0  0  0  0  0  1           0  0  0
   -1.6165   -3.0245    7.9617 O   0  0  0  0  0  2           0  0  0
   -3.7638   -1.4981    5.3807 O   0  0  0  0  0  2           0  0  0
    1.5628   -2.8794   -1.3632 O   0  0  0  0  0  2           0  0  0
   -3.8070   -3.5271    7.6684 O   0  0  0  0  0  2           0  0  0
    1.4530   -0.0000   -0.0000 N   0  0  0  0  0  3           0  0  0
    3.5346    0.7633    0.0226 N   0  0  0  0  0  3           0  0  0
   -2.0717    0.0855    5.3315 N   0  0  0  0  0  3           0  0  0
    3.5489   -0.6082    0.0290 C   0  0  0  0  0  4           0  0  0
   -3.4954   -1.0186    9.6870 C   0  0  0  0  0  4           0  0  0
   -3.7153    0.9764    7.7312 C   0  0  0  0  0  4           0  0  0
    2.2664    1.1151    0.0000 C   0  0  0  0  0  4           0  0  0
    2.2632   -1.1242    0.0006 C   0  0  0  0  0  4           0  0  0
   -1.5848    0.0311    4.0103 C   0  0  0  0  0  4           0  0  0
   -3.2186   -1.3223    8.3465 C   0  0  0  0  0  4           0  0  0
   -3.3412   -0.3240    7.3609 C   0  0  0  0  0  4           0  0  0
   -0.5412    0.0000    1.3968 C   0  0  0  0  0  4           0  0  0
   -3.8764    0.2767   10.0437 C   0  0  0  0  0  4           0  0  0
   -3.9823    1.2709    9.0704 C   0  0  0  0  0  4           0  0  0
   -2.1115   -0.8415    3.0525 C   0  0  0  0  0  4           0  0  0
   -0.5384    0.8889    3.6576 C   0  0  0  0  0  4           0  0  0
   -1.5940   -0.8526    1.7540 C   0  0  0  0  0  4           0  0  0
   -0.0218    0.8739    2.3600 C   0  0  0  0  0  4           0  0  0
   -2.7917   -2.6887    7.9812 C   0  0  0  0  0  4           0  0  0
   -3.0836   -0.6375    5.9350 C   0  0  0  0  0  4           0  0  0
    1.7131   -2.4985   -0.0017 C   0  0  0  0  0  4           0  0  0
    1.0366   -4.1944   -1.4829 C   0  0  0  0  0  4           0  0  0
    0.0000    0.0000    0.0000 C   0  0  0  0  0  4           0  0  0
    1.7824    2.5210   -0.0190 C   0  0  0  0  0  4           0  0  0
    2.5491    3.3857   -1.0151 C   0  0  0  0  0  4           0  0  0
    2.0916    4.8434   -1.0757 C   0  0  0  0  0  4           0  0  0
    2.8791    5.6728   -2.0792 C   0  0  0  0  0  4           0  0  0
  1 11  1  0     0  0
  2 12  1  0     0  0
  3 13  1  0     0  0
  4 26  2  0     0  0
  5 27  2  0     0  0
  6 28  1  0     0  0
  6 29  1  0     0  0
  7 26  1  0     0  0
  8 14  1  0     0  0
  8 15  1  0     0  0
  8 30  1  0     0  0
  9 11  1  0     0  0
  9 14  2  0     0  0
 10 16  1  0     0  0
 10 27  1  0     0  0
 11 15  2  0     0  0
 12 17  2  0     0  0
 12 20  1  0     0  0
 13 18  2  0     0  0
 13 21  1  0     0  0
 14 31  1  0     0  0
 15 28  1  0     0  0
 16 22  2  0     0  0
 16 23  1  0     0  0
 17 18  1  0     0  0
 17 26  1  0     0  0
 18 27  1  0     0  0
 19 24  2  0     0  0
 19 25  1  0     0  0
 19 30  1  0     0  0
 20 21  2  0     0  0
 22 24  1  0     0  0
 23 25  2  0     0  0
 31 32  1  0     0  0
 32 33  1  0     0  0
 33 34  1  0     0  0
M  END
> <standard_type>
pIC50

> <# Confs.>
25

> <canonical_smiles>
ClC(N=C1CCCC)=C(COC)N1CC2=CC=C(NC(C3=C(Cl)C=CC(Cl)=C3C(O)=O)=O)C=C2

> <standard_relation>
=

> <Publication_ID>
nan

> <predicted_activity_value>
6.698970004336019

> <actual_activity_value>
7.376750709602099

> <Compound>
5

> <standard_units>
nM

> hash
7676056760595389010

$$$$
5_
XXILIB    08252103513D 0   0.00000     0.00000

 34 36  0     1  0            999 V2000
    5.0279    1.4577   -0.0746 Cl  0  0  0  0  0  1           0  0  0
   -6.4728   -0.6030    8.8446 Cl  0  0  0  0  0  1           0  0  0
   -0.2819    0.3039    8.8802 Cl  0  0  0  0  0  1           0  0  0
   -5.1284   -0.4653    5.5599 O   0  0  0  0  0  2           0  0  0
   -0.9071   -1.5656    6.4876 O   0  0  0  0  0  2           0  0  0
    1.5574    2.8818   -1.3585 O   0  0  0  0  0  2           0  0  0
   -4.7679   -2.5423    6.3926 O   0  0  0  0  0  2           0  0  0
    1.4530    0.0000    0.0000 N   0  0  0  0  0  3           0  0  0
    3.5346   -0.7633   -0.0226 N   0  0  0  0  0  3           0  0  0
   -2.1462   -0.0055    5.3027 N   0  0  0  0  0  3           0  0  0
    3.5489    0.6082   -0.0290 C   0  0  0  0  0  4           0  0  0
   -4.7609   -0.3675    8.7826 C   0  0  0  0  0  4           0  0  0
   -1.9850    0.0172    8.8041 C   0  0  0  0  0  4           0  0  0
    2.2664   -1.1151    0.0000 C   0  0  0  0  0  4           0  0  0
    2.2632    1.1242   -0.0006 C   0  0  0  0  0  4           0  0  0
   -1.5869   -0.0289    4.0095 C   0  0  0  0  0  4           0  0  0
   -4.0070   -0.6612    7.6374 C   0  0  0  0  0  4           0  0  0
   -2.6138   -0.4561    7.6428 C   0  0  0  0  0  4           0  0  0
   -0.5412    0.0000    1.3968 C   0  0  0  0  0  4           0  0  0
   -4.1264    0.1123    9.9303 C   0  0  0  0  0  4           0  0  0
   -2.7439    0.3004    9.9423 C   0  0  0  0  0  4           0  0  0
   -0.5193   -0.8661    3.6694 C   0  0  0  0  0  4           0  0  0
   -2.1314    0.8194    3.0404 C   0  0  0  0  0  4           0  0  0
   -0.0039   -0.8526    2.3701 C   0  0  0  0  0  4           0  0  0
   -1.6127    0.8323    1.7436 C   0  0  0  0  0  4           0  0  0
   -4.6826   -1.1923    6.4357 C   0  0  0  0  0  4           0  0  0
   -1.8074   -0.7311    6.4295 C   0  0  0  0  0  4           0  0  0
    1.7131    2.4985    0.0017 C   0  0  0  0  0  4           0  0  0
    1.0308    4.1970   -1.4739 C   0  0  0  0  0  4           0  0  0
    0.0000    0.0000    0.0000 C   0  0  0  0  0  4           0  0  0
    1.7824   -2.5210    0.0190 C   0  0  0  0  0  4           0  0  0
    2.5241   -3.4040   -0.9801 C   0  0  0  0  0  4           0  0  0
    2.4013   -2.9573   -2.4372 C   0  0  0  0  0  4           0  0  0
    3.1535   -3.8618   -3.4021 C   0  0  0  0  0  4           0  0  0
  1 11  1  0     0  0
  2 12  1  0     0  0
  3 13  1  0     0  0
  4 26  2  0     0  0
  5 27  2  0     0  0
  6 28  1  0     0  0
  6 29  1  0     0  0
  7 26  1  0     0  0
  8 14  1  0     0  0
  8 15  1  0     0  0
  8 30  1  0     0  0
  9 11  1  0     0  0
  9 14  2  0     0  0
 10 16  1  0     0  0
 10 27  1  0     0  0
 11 15  2  0     0  0
 12 17  2  0     0  0
 12 20  1  0     0  0
 13 18  2  0     0  0
 13 21  1  0     0  0
 14 31  1  0     0  0
 15 28  1  0     0  0
 16 22  2  0     0  0
 16 23  1  0     0  0
 17 18  1  0     0  0
 17 26  1  0     0  0
 18 27  1  0     0  0
 19 24  2  0     0  0
 19 25  1  0     0  0
 19 30  1  0     0  0
 20 21  2  0     0  0
 22 24  1  0     0  0
 23 25  2  0     0  0
 31 32  1  0     0  0
 32 33  1  0     0  0
 33 34  1  0     0  0
M  END
> <standard_type>
pIC50

> <# Confs.>
25

> <canonical_smiles>
ClC(N=C1CCCC)=C(COC)N1CC2=CC=C(NC(C3=C(Cl)C=CC(Cl)=C3C(O)=O)=O)C=C2

> <standard_relation>
=

> <Publication_ID>
nan

> <predicted_activity_value>
6.698970004336019

> <actual_activity_value>
7.376750709602099

> <Compound>
5

> <standard_units>
nM

> hash
7676056760595389010

$$$$
5_
XXILIB    08252103513D 0   0.00000     0.00000

 34 36  0     1  0            999 V2000
    5.0279   -1.4577    0.0746 Cl  0  0  0  0  0  1           0  0  0
   -4.3868    2.8402    9.6528 Cl  0  0  0  0  0  1           0  0  0
   -2.7450   -2.9454    7.9258 Cl  0  0  0  0  0  1           0  0  0
   -2.9763    2.7733    6.3937 O   0  0  0  0  0  2           0  0  0
   -3.7638   -1.4981    5.3807 O   0  0  0  0  0  2           0  0  0
    1.5628   -2.8794   -1.3632 O   0  0  0  0  0  2           0  0  0
   -5.1465    2.1363    6.2459 O   0  0  0  0  0  2           0  0  0
    1.4530   -0.0000   -0.0000 N   0  0  0  0  0  3           0  0  0
    3.5346    0.7633    0.0226 N   0  0  0  0  0  3           0  0  0
   -2.0717    0.0855    5.3315 N   0  0  0  0  0  3           0  0  0
    3.5489   -0.6082    0.0290 C   0  0  0  0  0  4           0  0  0
   -3.9228    1.2663    9.1073 C   0  0  0  0  0  4           0  0  0
   -3.2090   -1.3298    8.3298 C   0  0  0  0  0  4           0  0  0
    2.2664    1.1151    0.0000 C   0  0  0  0  0  4           0  0  0
    2.2632   -1.1242    0.0006 C   0  0  0  0  0  4           0  0  0
   -1.5848    0.0311    4.0103 C   0  0  0  0  0  4           0  0  0
   -3.7125    0.9771    7.7515 C   0  0  0  0  0  4           0  0  0
   -3.3412   -0.3240    7.3609 C   0  0  0  0  0  4           0  0  0
   -0.5412    0.0000    1.3968 C   0  0  0  0  0  4           0  0  0
   -3.7793    0.2600   10.0649 C   0  0  0  0  0  4           0  0  0
   -3.4275   -1.0334    9.6774 C   0  0  0  0  0  4           0  0  0
   -2.1115   -0.8415    3.0525 C   0  0  0  0  0  4           0  0  0
   -0.5384    0.8889    3.6576 C   0  0  0  0  0  4           0  0  0
   -1.5940   -0.8526    1.7540 C   0  0  0  0  0  4           0  0  0
   -0.0218    0.8739    2.3600 C   0  0  0  0  0  4           0  0  0
   -3.8910    2.0412    6.7424 C   0  0  0  0  0  4           0  0  0
   -3.0836   -0.6375    5.9350 C   0  0  0  0  0  4           0  0  0
    1.7131   -2.4985   -0.0017 C   0  0  0  0  0  4           0  0  0
    1.0366   -4.1944   -1.4829 C   0  0  0  0  0  4           0  0  0
    0.0000    0.0000    0.0000 C   0  0  0  0  0  4           0  0  0
    1.7824    2.5210   -0.0190 C   0  0  0  0  0  4           0  0  0
    1.6111    3.0571   -1.4371 C   0  0  0  0  0  4           0  0  0
    1.1145    4.5010   -1.5154 C   0  0  0  0  0  4           0  0  0
   -0.2429    4.6998   -0.8574 C   0  0  0  0  0  4           0  0  0
  1 11  1  0     0  0
  2 12  1  0     0  0
  3 13  1  0     0  0
  4 26  2  0     0  0
  5 27  2  0     0  0
  6 28  1  0     0  0
  6 29  1  0     0  0
  7 26  1  0     0  0
  8 14  1  0     0  0
  8 15  1  0     0  0
  8 30  1  0     0  0
  9 11  1  0     0  0
  9 14  2  0     0  0
 10 16  1  0     0  0
 10 27  1  0     0  0
 11 15  2  0     0  0
 12 17  2  0     0  0
 12 20  1  0     0  0
 13 18  2  0     0  0
 13 21  1  0     0  0
 14 31  1  0     0  0
 15 28  1  0     0  0
 16 22  2  0     0  0
 16 23  1  0     0  0
 17 18  1  0     0  0
 17 26  1  0     0  0
 18 27  1  0     0  0
 19 24  2  0     0  0
 19 25  1  0     0  0
 19 30  1  0     0  0
 20 21  2  0     0  0
 22 24  1  0     0  0
 23 25  2  0     0  0
 31 32  1  0     0  0
 32 33  1  0     0  0
 33 34  1  0     0  0
M  END
> <standard_type>
pIC50

> <# Confs.>
25

> <canonical_smiles>
ClC(N=C1CCCC)=C(COC)N1CC2=CC=C(NC(C3=C(Cl)C=CC(Cl)=C3C(O)=O)=O)C=C2

> <standard_relation>
=

> <Publication_ID>
nan

> <predicted_activity_value>
6.698970004336019

> <actual_activity_value>
7.376750709602099

> <Compound>
5

> <standard_units>
nM

> hash
7676056760595389010

$$$$
5_
XXILIB    08252103513D 0   0.00000     0.00000

 34 36  0     1  0            999 V2000
    5.0279   -1.4577    0.0746 Cl  0  0  0  0  0  1           0  0  0
   -3.3575   -2.1956   10.9462 Cl  0  0  0  0  0  1           0  0  0
   -3.8975    2.2490    6.5753 Cl  0  0  0  0  0  1           0  0  0
   -1.6165   -3.0245    7.9617 O   0  0  0  0  0  2           0  0  0
   -3.7638   -1.4981    5.3807 O   0  0  0  0  0  2           0  0  0
    1.5628   -2.8794   -1.3632 O   0  0  0  0  0  2           0  0  0
   -3.8070   -3.5271    7.6684 O   0  0  0  0  0  2           0  0  0
    1.4530   -0.0000   -0.0000 N   0  0  0  0  0  3           0  0  0
    3.5346    0.7633    0.0226 N   0  0  0  0  0  3           0  0  0
   -2.0717    0.0855    5.3315 N   0  0  0  0  0  3           0  0  0
    3.5489   -0.6082    0.0290 C   0  0  0  0  0  4           0  0  0
   -3.4954   -1.0186    9.6870 C   0  0  0  0  0  4           0  0  0
   -3.7153    0.9764    7.7312 C   0  0  0  0  0  4           0  0  0
    2.2664    1.1151    0.0000 C   0  0  0  0  0  4           0  0  0
    2.2632   -1.1242    0.0006 C   0  0  0  0  0  4           0  0  0
   -1.5848    0.0311    4.0103 C   0  0  0  0  0  4           0  0  0
   -3.2186   -1.3223    8.3465 C   0  0  0  0  0  4           0  0  0
   -3.3412   -0.3240    7.3609 C   0  0  0  0  0  4           0  0  0
   -0.5412    0.0000    1.3968 C   0  0  0  0  0  4           0  0  0
   -3.8764    0.2767   10.0437 C   0  0  0  0  0  4           0  0  0
   -3.9823    1.2709    9.0704 C   0  0  0  0  0  4           0  0  0
   -2.1115   -0.8415    3.0525 C   0  0  0  0  0  4           0  0  0
   -0.5384    0.8889    3.6576 C   0  0  0  0  0  4           0  0  0
   -1.5940   -0.8526    1.7540 C   0  0  0  0  0  4           0  0  0
   -0.0218    0.8739    2.3600 C   0  0  0  0  0  4           0  0  0
   -2.7917   -2.6887    7.9812 C   0  0  0  0  0  4           0  0  0
   -3.0836   -0.6375    5.9350 C   0  0  0  0  0  4           0  0  0
    1.7131   -2.4985   -0.0017 C   0  0  0  0  0  4           0  0  0
    1.0366   -4.1944   -1.4829 C   0  0  0  0  0  4           0  0  0
    0.0000    0.0000    0.0000 C   0  0  0  0  0  4           0  0  0
    1.7824    2.5210   -0.0190 C   0  0  0  0  0  4           0  0  0
    2.5241    3.4040    0.9801 C   0  0  0  0  0  4           0  0  0
    2.0655    4.8625    1.0025 C   0  0  0  0  0  4           0  0  0
    2.8277    5.7103    2.0101 C   0  0  0  0  0  4           0  0  0
  1 11  1  0     0  0
  2 12  1  0     0  0
  3 13  1  0     0  0
  4 26  2  0     0  0
  5 27  2  0     0  0
  6 28  1  0     0  0
  6 29  1  0     0  0
  7 26  1  0     0  0
  8 14  1  0     0  0
  8 15  1  0     0  0
  8 30  1  0     0  0
  9 11  1  0     0  0
  9 14  2  0     0  0
 10 16  1  0     0  0
 10 27  1  0     0  0
 11 15  2  0     0  0
 12 17  2  0     0  0
 12 20  1  0     0  0
 13 18  2  0     0  0
 13 21  1  0     0  0
 14 31  1  0     0  0
 15 28  1  0     0  0
 16 22  2  0     0  0
 16 23  1  0     0  0
 17 18  1  0     0  0
 17 26  1  0     0  0
 18 27  1  0     0  0
 19 24  2  0     0  0
 19 25  1  0     0  0
 19 30  1  0     0  0
 20 21  2  0     0  0
 22 24  1  0     0  0
 23 25  2  0     0  0
 31 32  1  0     0  0
 32 33  1  0     0  0
 33 34  1  0     0  0
M  END
> <standard_type>
pIC50

> <# Confs.>
25

> <canonical_smiles>
ClC(N=C1CCCC)=C(COC)N1CC2=CC=C(NC(C3=C(Cl)C=CC(Cl)=C3C(O)=O)=O)C=C2

> <standard_relation>
=

> <Publication_ID>
nan

> <predicted_activity_value>
6.698970004336019

> <actual_activity_value>
7.376750709602099

> <Compound>
5

> <standard_units>
nM

> hash
7676056760595389010

$$$$
5_
XXILIB    08252103513D 0   0.00000     0.00000

 34 36  0     1  0            999 V2000
    5.0279    1.4577   -0.0746 Cl  0  0  0  0  0  1           0  0  0
   -6.4728   -0.6030    8.8446 Cl  0  0  0  0  0  1           0  0  0
   -0.2819    0.3039    8.8802 Cl  0  0  0  0  0  1           0  0  0
   -5.1284   -0.4653    5.5599 O   0  0  0  0  0  2           0  0  0
   -0.9071   -1.5656    6.4876 O   0  0  0  0  0  2           0  0  0
    1.5574    2.8818   -1.3585 O   0  0  0  0  0  2           0  0  0
   -4.7679   -2.5423    6.3926 O   0  0  0  0  0  2           0  0  0
    1.4530    0.0000    0.0000 N   0  0  0  0  0  3           0  0  0
    3.5346   -0.7633   -0.0226 N   0  0  0  0  0  3           0  0  0
   -2.1462   -0.0055    5.3027 N   0  0  0  0  0  3           0  0  0
    3.5489    0.6082   -0.0290 C   0  0  0  0  0  4           0  0  0
   -4.7609   -0.3675    8.7826 C   0  0  0  0  0  4           0  0  0
   -1.9850    0.0172    8.8041 C   0  0  0  0  0  4           0  0  0
    2.2664   -1.1151    0.0000 C   0  0  0  0  0  4           0  0  0
    2.2632    1.1242   -0.0006 C   0  0  0  0  0  4           0  0  0
   -1.5869   -0.0289    4.0095 C   0  0  0  0  0  4           0  0  0
   -4.0070   -0.6612    7.6374 C   0  0  0  0  0  4           0  0  0
   -2.6138   -0.4561    7.6428 C   0  0  0  0  0  4           0  0  0
   -0.5412    0.0000    1.3968 C   0  0  0  0  0  4           0  0  0
   -4.1264    0.1123    9.9303 C   0  0  0  0  0  4           0  0  0
   -2.7439    0.3004    9.9423 C   0  0  0  0  0  4           0  0  0
   -0.5193   -0.8661    3.6694 C   0  0  0  0  0  4           0  0  0
   -2.1314    0.8194    3.0404 C   0  0  0  0  0  4           0  0  0
   -0.0039   -0.8526    2.3701 C   0  0  0  0  0  4           0  0  0
   -1.6127    0.8323    1.7436 C   0  0  0  0  0  4           0  0  0
   -4.6826   -1.1923    6.4357 C   0  0  0  0  0  4           0  0  0
   -1.8074   -0.7311    6.4295 C   0  0  0  0  0  4           0  0  0
    1.7131    2.4985    0.0017 C   0  0  0  0  0  4           0  0  0
    1.0308    4.1970   -1.4739 C   0  0  0  0  0  4           0  0  0
    0.0000    0.0000    0.0000 C   0  0  0  0  0  4           0  0  0
    1.7824   -2.5210    0.0190 C   0  0  0  0  0  4           0  0  0
    2.5241   -3.4040   -0.9801 C   0  0  0  0  0  4           0  0  0
    2.0655   -4.8625   -1.0025 C   0  0  0  0  0  4           0  0  0
    2.8277   -5.7103   -2.0101 C   0  0  0  0  0  4           0  0  0
  1 11  1  0     0  0
  2 12  1  0     0  0
  3 13  1  0     0  0
  4 26  2  0     0  0
  5 27  2  0     0  0
  6 28  1  0     0  0
  6 29  1  0     0  0
  7 26  1  0     0  0
  8 14  1  0     0  0
  8 15  1  0     0  0
  8 30  1  0     0  0
  9 11  1  0     0  0
  9 14  2  0     0  0
 10 16  1  0     0  0
 10 27  1  0     0  0
 11 15  2  0     0  0
 12 17  2  0     0  0
 12 20  1  0     0  0
 13 18  2  0     0  0
 13 21  1  0     0  0
 14 31  1  0     0  0
 15 28  1  0     0  0
 16 22  2  0     0  0
 16 23  1  0     0  0
 17 18  1  0     0  0
 17 26  1  0     0  0
 18 27  1  0     0  0
 19 24  2  0     0  0
 19 25  1  0     0  0
 19 30  1  0     0  0
 20 21  2  0     0  0
 22 24  1  0     0  0
 23 25  2  0     0  0
 31 32  1  0     0  0
 32 33  1  0     0  0
 33 34  1  0     0  0
M  END
> <standard_type>
pIC50

> <# Confs.>
25

> <canonical_smiles>
ClC(N=C1CCCC)=C(COC)N1CC2=CC=C(NC(C3=C(Cl)C=CC(Cl)=C3C(O)=O)=O)C=C2

> <standard_relation>
=

> <Publication_ID>
nan

> <predicted_activity_value>
6.698970004336019

> <actual_activity_value>
7.376750709602099

> <Compound>
5

> <standard_units>
nM

> hash
7676056760595389010

$$$$
5_
XXILIB    08252103513D 0   0.00000     0.00000

 34 36  0     1  0            999 V2000
    5.0279   -1.4577    0.0746 Cl  0  0  0  0  0  1           0  0  0
   -6.0069   -1.7596    9.4164 Cl  0  0  0  0  0  1           0  0  0
   -0.7822    1.4899    8.2789 Cl  0  0  0  0  0  1           0  0  0
   -5.2927   -2.2497    6.4106 O   0  0  0  0  0  2           0  0  0
   -0.9071   -1.5656    6.4876 O   0  0  0  0  0  2           0  0  0
    1.5628   -2.8794   -1.3632 O   0  0  0  0  0  2           0  0  0
   -3.3208   -3.2745    6.8565 O   0  0  0  0  0  2           0  0  0
    1.4530   -0.0000   -0.0000 N   0  0  0  0  0  3           0  0  0
    3.5346    0.7633    0.0226 N   0  0  0  0  0  3           0  0  0
   -2.1462   -0.0055    5.3027 N   0  0  0  0  0  3           0  0  0
    3.5489   -0.6082    0.0290 C   0  0  0  0  0  4           0  0  0
   -4.5581   -0.8954    9.0370 C   0  0  0  0  0  4           0  0  0
   -2.2060    0.5442    8.5378 C   0  0  0  0  0  4           0  0  0
    2.2664    1.1151    0.0000 C   0  0  0  0  0  4           0  0  0
    2.2632   -1.1242    0.0006 C   0  0  0  0  0  4           0  0  0
   -1.5869   -0.0289    4.0095 C   0  0  0  0  0  4           0  0  0
   -3.7891   -1.1875    7.9015 C   0  0  0  0  0  4           0  0  0
   -2.6138   -0.4561    7.6428 C   0  0  0  0  0  4           0  0  0
   -0.5412    0.0000    1.3968 C   0  0  0  0  0  4           0  0  0
   -4.1483    0.1089    9.9166 C   0  0  0  0  0  4           0  0  0
   -2.9753    0.8232    9.6700 C   0  0  0  0  0  4           0  0  0
   -0.5193   -0.8661    3.6694 C   0  0  0  0  0  4           0  0  0
   -2.1314    0.8194    3.0404 C   0  0  0  0  0  4           0  0  0
   -0.0039   -0.8526    2.3701 C   0  0  0  0  0  4           0  0  0
   -1.6127    0.8323    1.7436 C   0  0  0  0  0  4           0  0  0
   -4.2162   -2.2684    6.9896 C   0  0  0  0  0  4           0  0  0
   -1.8074   -0.7311    6.4295 C   0  0  0  0  0  4           0  0  0
    1.7131   -2.4985   -0.0017 C   0  0  0  0  0  4           0  0  0
    1.0366   -4.1944   -1.4829 C   0  0  0  0  0  4           0  0  0
    0.0000    0.0000    0.0000 C   0  0  0  0  0  4           0  0  0
    1.7824    2.5210   -0.0190 C   0  0  0  0  0  4           0  0  0
    1.6111    3.0571   -1.4371 C   0  0  0  0  0  4           0  0  0
    1.1145    4.5010   -1.5154 C   0  0  0  0  0  4           0  0  0
    0.9563    4.9991   -2.9443 C   0  0  0  0  0  4           0  0  0
  1 11  1  0     0  0
  2 12  1  0     0  0
  3 13  1  0     0  0
  4 26  2  0     0  0
  5 27  2  0     0  0
  6 28  1  0     0  0
  6 29  1  0     0  0
  7 26  1  0     0  0
  8 14  1  0     0  0
  8 15  1  0     0  0
  8 30  1  0     0  0
  9 11  1  0     0  0
  9 14  2  0     0  0
 10 16  1  0     0  0
 10 27  1  0     0  0
 11 15  2  0     0  0
 12 17  2  0     0  0
 12 20  1  0     0  0
 13 18  2  0     0  0
 13 21  1  0     0  0
 14 31  1  0     0  0
 15 28  1  0     0  0
 16 22  2  0     0  0
 16 23  1  0     0  0
 17 18  1  0     0  0
 17 26  1  0     0  0
 18 27  1  0     0  0
 19 24  2  0     0  0
 19 25  1  0     0  0
 19 30  1  0     0  0
 20 21  2  0     0  0
 22 24  1  0     0  0
 23 25  2  0     0  0
 31 32  1  0     0  0
 32 33  1  0     0  0
 33 34  1  0     0  0
M  END
> <standard_type>
pIC50

> <# Confs.>
25

> <canonical_smiles>
ClC(N=C1CCCC)=C(COC)N1CC2=CC=C(NC(C3=C(Cl)C=CC(Cl)=C3C(O)=O)=O)C=C2

> <standard_relation>
=

> <Publication_ID>
nan

> <predicted_activity_value>
6.698970004336019

> <actual_activity_value>
7.376750709602099

> <Compound>
5

> <standard_units>
nM

> hash
7676056760595389010

$$$$
5_
XXILIB    08252103513D 0   0.00000     0.00000

 34 36  0     1  0            999 V2000
    5.0279    1.4577   -0.0746 Cl  0  0  0  0  0  1           0  0  0
   -6.4728   -0.6030    8.8446 Cl  0  0  0  0  0  1           0  0  0
   -0.2819    0.3039    8.8802 Cl  0  0  0  0  0  1           0  0  0
   -5.1284   -0.4653    5.5599 O   0  0  0  0  0  2           0  0  0
   -0.9071   -1.5656    6.4876 O   0  0  0  0  0  2           0  0  0
    1.5574    2.8818   -1.3585 O   0  0  0  0  0  2           0  0  0
   -4.7679   -2.5423    6.3926 O   0  0  0  0  0  2           0  0  0
    1.4530    0.0000    0.0000 N   0  0  0  0  0  3           0  0  0
    3.5346   -0.7633   -0.0226 N   0  0  0  0  0  3           0  0  0
   -2.1462   -0.0055    5.3027 N   0  0  0  0  0  3           0  0  0
    3.5489    0.6082   -0.0290 C   0  0  0  0  0  4           0  0  0
   -4.7609   -0.3675    8.7826 C   0  0  0  0  0  4           0  0  0
   -1.9850    0.0172    8.8041 C   0  0  0  0  0  4           0  0  0
    2.2664   -1.1151    0.0000 C   0  0  0  0  0  4           0  0  0
    2.2632    1.1242   -0.0006 C   0  0  0  0  0  4           0  0  0
   -1.5869   -0.0289    4.0095 C   0  0  0  0  0  4           0  0  0
   -4.0070   -0.6612    7.6374 C   0  0  0  0  0  4           0  0  0
   -2.6138   -0.4561    7.6428 C   0  0  0  0  0  4           0  0  0
   -0.5412    0.0000    1.3968 C   0  0  0  0  0  4           0  0  0
   -4.1264    0.1123    9.9303 C   0  0  0  0  0  4           0  0  0
   -2.7439    0.3004    9.9423 C   0  0  0  0  0  4           0  0  0
   -0.5193   -0.8661    3.6694 C   0  0  0  0  0  4           0  0  0
   -2.1314    0.8194    3.0404 C   0  0  0  0  0  4           0  0  0
   -0.0039   -0.8526    2.3701 C   0  0  0  0  0  4           0  0  0
   -1.6127    0.8323    1.7436 C   0  0  0  0  0  4           0  0  0
   -4.6826   -1.1923    6.4357 C   0  0  0  0  0  4           0  0  0
   -1.8074   -0.7311    6.4295 C   0  0  0  0  0  4           0  0  0
    1.7131    2.4985    0.0017 C   0  0  0  0  0  4           0  0  0
    1.0308    4.1970   -1.4739 C   0  0  0  0  0  4           0  0  0
    0.0000    0.0000    0.0000 C   0  0  0  0  0  4           0  0  0
    1.7824   -2.5210    0.0190 C   0  0  0  0  0  4           0  0  0
    2.5491   -3.3857    1.0151 C   0  0  0  0  0  4           0  0  0
    2.0916   -4.8434    1.0757 C   0  0  0  0  0  4           0  0  0
    2.8791   -5.6728    2.0792 C   0  0  0  0  0  4           0  0  0
  1 11  1  0     0  0
  2 12  1  0     0  0
  3 13  1  0     0  0
  4 26  2  0     0  0
  5 27  2  0     0  0
  6 28  1  0     0  0
  6 29  1  0     0  0
  7 26  1  0     0  0
  8 14  1  0     0  0
  8 15  1  0     0  0
  8 30  1  0     0  0
  9 11  1  0     0  0
  9 14  2  0     0  0
 10 16  1  0     0  0
 10 27  1  0     0  0
 11 15  2  0     0  0
 12 17  2  0     0  0
 12 20  1  0     0  0
 13 18  2  0     0  0
 13 21  1  0     0  0
 14 31  1  0     0  0
 15 28  1  0     0  0
 16 22  2  0     0  0
 16 23  1  0     0  0
 17 18  1  0     0  0
 17 26  1  0     0  0
 18 27  1  0     0  0
 19 24  2  0     0  0
 19 25  1  0     0  0
 19 30  1  0     0  0
 20 21  2  0     0  0
 22 24  1  0     0  0
 23 25  2  0     0  0
 31 32  1  0     0  0
 32 33  1  0     0  0
 33 34  1  0     0  0
M  END
> <standard_type>
pIC50

> <# Confs.>
25

> <canonical_smiles>
ClC(N=C1CCCC)=C(COC)N1CC2=CC=C(NC(C3=C(Cl)C=CC(Cl)=C3C(O)=O)=O)C=C2

> <standard_relation>
=

> <Publication_ID>
nan

> <predicted_activity_value>
6.698970004336019

> <actual_activity_value>
7.376750709602099

> <Compound>
5

> <standard_units>
nM

> hash
7676056760595389010

$$$$
5_
XXILIB    08252103513D 0   0.00000     0.00000

 34 36  0     1  0            999 V2000
    5.0279   -1.4577    0.0746 Cl  0  0  0  0  0  1           0  0  0
   -6.0069   -1.7596    9.4164 Cl  0  0  0  0  0  1           0  0  0
   -0.7822    1.4899    8.2789 Cl  0  0  0  0  0  1           0  0  0
   -5.2927   -2.2497    6.4106 O   0  0  0  0  0  2           0  0  0
   -0.9071   -1.5656    6.4876 O   0  0  0  0  0  2           0  0  0
    1.5628   -2.8794   -1.3632 O   0  0  0  0  0  2           0  0  0
   -3.3208   -3.2745    6.8565 O   0  0  0  0  0  2           0  0  0
    1.4530   -0.0000   -0.0000 N   0  0  0  0  0  3           0  0  0
    3.5346    0.7633    0.0226 N   0  0  0  0  0  3           0  0  0
   -2.1462   -0.0055    5.3027 N   0  0  0  0  0  3           0  0  0
    3.5489   -0.6082    0.0290 C   0  0  0  0  0  4           0  0  0
   -4.5581   -0.8954    9.0370 C   0  0  0  0  0  4           0  0  0
   -2.2060    0.5442    8.5378 C   0  0  0  0  0  4           0  0  0
    2.2664    1.1151    0.0000 C   0  0  0  0  0  4           0  0  0
    2.2632   -1.1242    0.0006 C   0  0  0  0  0  4           0  0  0
   -1.5869   -0.0289    4.0095 C   0  0  0  0  0  4           0  0  0
   -3.7891   -1.1875    7.9015 C   0  0  0  0  0  4           0  0  0
   -2.6138   -0.4561    7.6428 C   0  0  0  0  0  4           0  0  0
   -0.5412    0.0000    1.3968 C   0  0  0  0  0  4           0  0  0
   -4.1483    0.1089    9.9166 C   0  0  0  0  0  4           0  0  0
   -2.9753    0.8232    9.6700 C   0  0  0  0  0  4           0  0  0
   -0.5193   -0.8661    3.6694 C   0  0  0  0  0  4           0  0  0
   -2.1314    0.8194    3.0404 C   0  0  0  0  0  4           0  0  0
   -0.0039   -0.8526    2.3701 C   0  0  0  0  0  4           0  0  0
   -1.6127    0.8323    1.7436 C   0  0  0  0  0  4           0  0  0
   -4.2162   -2.2684    6.9896 C   0  0  0  0  0  4           0  0  0
   -1.8074   -0.7311    6.4295 C   0  0  0  0  0  4           0  0  0
    1.7131   -2.4985   -0.0017 C   0  0  0  0  0  4           0  0  0
    1.0366   -4.1944   -1.4829 C   0  0  0  0  0  4           0  0  0
    0.0000    0.0000    0.0000 C   0  0  0  0  0  4           0  0  0
    1.7824    2.5210   -0.0190 C   0  0  0  0  0  4           0  0  0
    1.5756    3.0829    1.3844 C   0  0  0  0  0  4           0  0  0
    1.0775    4.5280    1.4237 C   0  0  0  0  0  4           0  0  0
    0.8837    5.0521    2.8388 C   0  0  0  0  0  4           0  0  0
  1 11  1  0     0  0
  2 12  1  0     0  0
  3 13  1  0     0  0
  4 26  2  0     0  0
  5 27  2  0     0  0
  6 28  1  0     0  0
  6 29  1  0     0  0
  7 26  1  0     0  0
  8 14  1  0     0  0
  8 15  1  0     0  0
  8 30  1  0     0  0
  9 11  1  0     0  0
  9 14  2  0     0  0
 10 16  1  0     0  0
 10 27  1  0     0  0
 11 15  2  0     0  0
 12 17  2  0     0  0
 12 20  1  0     0  0
 13 18  2  0     0  0
 13 21  1  0     0  0
 14 31  1  0     0  0
 15 28  1  0     0  0
 16 22  2  0     0  0
 16 23  1  0     0  0
 17 18  1  0     0  0
 17 26  1  0     0  0
 18 27  1  0     0  0
 19 24  2  0     0  0
 19 25  1  0     0  0
 19 30  1  0     0  0
 20 21  2  0     0  0
 22 24  1  0     0  0
 23 25  2  0     0  0
 31 32  1  0     0  0
 32 33  1  0     0  0
 33 34  1  0     0  0
M  END
> <standard_type>
pIC50

> <# Confs.>
25

> <canonical_smiles>
ClC(N=C1CCCC)=C(COC)N1CC2=CC=C(NC(C3=C(Cl)C=CC(Cl)=C3C(O)=O)=O)C=C2

> <standard_relation>
=

> <Publication_ID>
nan

> <predicted_activity_value>
6.698970004336019

> <actual_activity_value>
7.376750709602099

> <Compound>
5

> <standard_units>
nM

> hash
7676056760595389010

$$$$
5_
XXILIB    08252103513D 0   0.00000     0.00000

 34 36  0     1  0            999 V2000
    5.0279    1.4577   -0.0746 Cl  0  0  0  0  0  1           0  0  0
   -5.5970    2.1991    9.5752 Cl  0  0  0  0  0  1           0  0  0
   -1.5018   -2.2617    8.0000 Cl  0  0  0  0  0  1           0  0  0
   -4.9482    2.6191    6.5441 O   0  0  0  0  0  2           0  0  0
   -3.7638   -1.4981    5.3807 O   0  0  0  0  0  2           0  0  0
    1.5574    2.8818   -1.3585 O   0  0  0  0  0  2           0  0  0
   -5.7966    0.6194    5.8972 O   0  0  0  0  0  2           0  0  0
    1.4530    0.0000    0.0000 N   0  0  0  0  0  3           0  0  0
    3.5346   -0.7633   -0.0226 N   0  0  0  0  0  3           0  0  0
   -2.0717    0.0855    5.3315 N   0  0  0  0  0  3           0  0  0
    3.5489    0.6082   -0.0290 C   0  0  0  0  0  4           0  0  0
   -4.4743    0.9853    9.0694 C   0  0  0  0  0  4           0  0  0
   -2.6568   -1.0276    8.3632 C   0  0  0  0  0  4           0  0  0
    2.2664   -1.1151    0.0000 C   0  0  0  0  0  4           0  0  0
    2.2632    1.1242   -0.0006 C   0  0  0  0  0  4           0  0  0
   -1.5848    0.0311    4.0103 C   0  0  0  0  0  4           0  0  0
   -4.2638    0.6784    7.7176 C   0  0  0  0  0  4           0  0  0
   -3.3412   -0.3240    7.3609 C   0  0  0  0  0  4           0  0  0
   -0.5412    0.0000    1.3968 C   0  0  0  0  0  4           0  0  0
   -3.7806    0.2854   10.0590 C   0  0  0  0  0  4           0  0  0
   -2.8785   -0.7193    9.7075 C   0  0  0  0  0  4           0  0  0
   -2.1115   -0.8415    3.0525 C   0  0  0  0  0  4           0  0  0
   -0.5384    0.8889    3.6576 C   0  0  0  0  0  4           0  0  0
   -1.5940   -0.8526    1.7540 C   0  0  0  0  0  4           0  0  0
   -0.0218    0.8739    2.3600 C   0  0  0  0  0  4           0  0  0
   -5.0202    1.4062    6.6781 C   0  0  0  0  0  4           0  0  0
   -3.0836   -0.6375    5.9350 C   0  0  0  0  0  4           0  0  0
    1.7131    2.4985    0.0017 C   0  0  0  0  0  4           0  0  0
    1.0308    4.1970   -1.4739 C   0  0  0  0  0  4           0  0  0
    0.0000    0.0000    0.0000 C   0  0  0  0  0  4           0  0  0
    1.7824   -2.5210    0.0190 C   0  0  0  0  0  4           0  0  0
    1.5756   -3.0829   -1.3844 C   0  0  0  0  0  4           0  0  0
    1.0775   -4.5280   -1.4237 C   0  0  0  0  0  4           0  0  0
    0.8837   -5.0521   -2.8388 C   0  0  0  0  0  4           0  0  0
  1 11  1  0     0  0
  2 12  1  0     0  0
  3 13  1  0     0  0
  4 26  2  0     0  0
  5 27  2  0     0  0
  6 28  1  0     0  0
  6 29  1  0     0  0
  7 26  1  0     0  0
  8 14  1  0     0  0
  8 15  1  0     0  0
  8 30  1  0     0  0
  9 11  1  0     0  0
  9 14  2  0     0  0
 10 16  1  0     0  0
 10 27  1  0     0  0
 11 15  2  0     0  0
 12 17  2  0     0  0
 12 20  1  0     0  0
 13 18  2  0     0  0
 13 21  1  0     0  0
 14 31  1  0     0  0
 15 28  1  0     0  0
 16 22  2  0     0  0
 16 23  1  0     0  0
 17 18  1  0     0  0
 17 26  1  0     0  0
 18 27  1  0     0  0
 19 24  2  0     0  0
 19 25  1  0     0  0
 19 30  1  0     0  0
 20 21  2  0     0  0
 22 24  1  0     0  0
 23 25  2  0     0  0
 31 32  1  0     0  0
 32 33  1  0     0  0
 33 34  1  0     0  0
M  END
> <standard_type>
pIC50

> <# Confs.>
25

> <canonical_smiles>
ClC(N=C1CCCC)=C(COC)N1CC2=CC=C(NC(C3=C(Cl)C=CC(Cl)=C3C(O)=O)=O)C=C2

> <standard_relation>
=

> <Publication_ID>
nan

> <predicted_activity_value>
6.698970004336019

> <actual_activity_value>
7.376750709602099

> <Compound>
5

> <standard_units>
nM

> hash
7676056760595389010

$$$$
5_
XXILIB    08252103513D 0   0.00000     0.00000

 34 36  0     1  0            999 V2000
    5.0279   -1.4577    0.0746 Cl  0  0  0  0  0  1           0  0  0
   -6.0069   -1.7596    9.4164 Cl  0  0  0  0  0  1           0  0  0
   -0.7822    1.4899    8.2789 Cl  0  0  0  0  0  1           0  0  0
   -5.2927   -2.2497    6.4106 O   0  0  0  0  0  2           0  0  0
   -0.9071   -1.5656    6.4876 O   0  0  0  0  0  2           0  0  0
    1.5628   -2.8794   -1.3632 O   0  0  0  0  0  2           0  0  0
   -3.3208   -3.2745    6.8565 O   0  0  0  0  0  2           0  0  0
    1.4530   -0.0000   -0.0000 N   0  0  0  0  0  3           0  0  0
    3.5346    0.7633    0.0226 N   0  0  0  0  0  3           0  0  0
   -2.1462   -0.0055    5.3027 N   0  0  0  0  0  3           0  0  0
    3.5489   -0.6082    0.0290 C   0  0  0  0  0  4           0  0  0
   -4.5581   -0.8954    9.0370 C   0  0  0  0  0  4           0  0  0
   -2.2060    0.5442    8.5378 C   0  0  0  0  0  4           0  0  0
    2.2664    1.1151    0.0000 C   0  0  0  0  0  4           0  0  0
    2.2632   -1.1242    0.0006 C   0  0  0  0  0  4           0  0  0
   -1.5869   -0.0289    4.0095 C   0  0  0  0  0  4           0  0  0
   -3.7891   -1.1875    7.9015 C   0  0  0  0  0  4           0  0  0
   -2.6138   -0.4561    7.6428 C   0  0  0  0  0  4           0  0  0
   -0.5412    0.0000    1.3968 C   0  0  0  0  0  4           0  0  0
   -4.1483    0.1089    9.9166 C   0  0  0  0  0  4           0  0  0
   -2.9753    0.8232    9.6700 C   0  0  0  0  0  4           0  0  0
   -0.5193   -0.8661    3.6694 C   0  0  0  0  0  4           0  0  0
   -2.1314    0.8194    3.0404 C   0  0  0  0  0  4           0  0  0
   -0.0039   -0.8526    2.3701 C   0  0  0  0  0  4           0  0  0
   -1.6127    0.8323    1.7436 C   0  0  0  0  0  4           0  0  0
   -4.2162   -2.2684    6.9896 C   0  0  0  0  0  4           0  0  0
   -1.8074   -0.7311    6.4295 C   0  0  0  0  0  4           0  0  0
    1.7131   -2.4985   -0.0017 C   0  0  0  0  0  4           0  0  0
    1.0366   -4.1944   -1.4829 C   0  0  0  0  0  4           0  0  0
    0.0000    0.0000    0.0000 C   0  0  0  0  0  4           0  0  0
    1.7824    2.5210   -0.0190 C   0  0  0  0  0  4           0  0  0
    1.6111    3.0571   -1.4371 C   0  0  0  0  0  4           0  0  0
    2.8908    3.0623   -2.2738 C   0  0  0  0  0  4           0  0  0
    2.6799    3.6032   -3.6802 C   0  0  0  0  0  4           0  0  0
  1 11  1  0     0  0
  2 12  1  0     0  0
  3 13  1  0     0  0
  4 26  2  0     0  0
  5 27  2  0     0  0
  6 28  1  0     0  0
  6 29  1  0     0  0
  7 26  1  0     0  0
  8 14  1  0     0  0
  8 15  1  0     0  0
  8 30  1  0     0  0
  9 11  1  0     0  0
  9 14  2  0     0  0
 10 16  1  0     0  0
 10 27  1  0     0  0
 11 15  2  0     0  0
 12 17  2  0     0  0
 12 20  1  0     0  0
 13 18  2  0     0  0
 13 21  1  0     0  0
 14 31  1  0     0  0
 15 28  1  0     0  0
 16 22  2  0     0  0
 16 23  1  0     0  0
 17 18  1  0     0  0
 17 26  1  0     0  0
 18 27  1  0     0  0
 19 24  2  0     0  0
 19 25  1  0     0  0
 19 30  1  0     0  0
 20 21  2  0     0  0
 22 24  1  0     0  0
 23 25  2  0     0  0
 31 32  1  0     0  0
 32 33  1  0     0  0
 33 34  1  0     0  0
M  END
> <standard_type>
pIC50

> <# Confs.>
25

> <canonical_smiles>
ClC(N=C1CCCC)=C(COC)N1CC2=CC=C(NC(C3=C(Cl)C=CC(Cl)=C3C(O)=O)=O)C=C2

> <standard_relation>
=

> <Publication_ID>
nan

> <predicted_activity_value>
6.698970004336019

> <actual_activity_value>
7.376750709602099

> <Compound>
5

> <standard_units>
nM

> hash
7676056760595389010

$$$$
23_
XXILIB    08252103513D 0   0.00000     0.00000

 30 31  0     1  0            999 V2000
   -3.5748    0.0265   -1.4596 Cl  0  0  0  0  0  1           0  0  0
    0.1941    2.3706   -2.3099 O   0  0  0  0  0  2           0  0  0
    5.3537  -10.0523    0.0471 O   0  0  0  0  0  2           0  0  0
    5.2139   -5.3768   -1.5138 O   0  0  0  0  0  2           0  0  0
   -0.2113    1.4000   -4.3592 O   0  0  0  0  0  2           0  0  0
    7.0219  -10.0299   -1.4979 O   0  0  0  0  0  2           0  0  0
    0.0000   -0.0000    0.0000 N   0  0  0  0  0  3           0  0  0
   -2.0822    0.0079    0.7623 N   0  0  0  0  0  3           0  0  0
    3.4961   -5.3416    0.0561 N   0  0  0  0  0  3           0  0  0
   -2.0956    0.0071   -0.6094 C   0  0  0  0  0  4           0  0  0
   -0.8139    0.0000    1.1146 C   0  0  0  0  0  4           0  0  0
   -0.8093   -0.0085   -1.1246 C   0  0  0  0  0  4           0  0  0
    3.0209   -4.0165    0.0152 C   0  0  0  0  0  4           0  0  0
    1.9910   -1.3970    0.0000 C   0  0  0  0  0  4           0  0  0
    1.9625   -3.6692    0.8604 C   0  0  0  0  0  4           0  0  0
    3.5692   -3.0495   -0.8334 C   0  0  0  0  0  4           0  0  0
    1.4527   -2.3689    0.8531 C   0  0  0  0  0  4           0  0  0
    3.0588   -1.7482   -0.8361 C   0  0  0  0  0  4           0  0  0
   -0.0568    1.3933   -3.0026 C   0  0  0  0  0  4           0  0  0
    6.0239   -9.4521   -0.7829 C   0  0  0  0  0  4           0  0  0
    4.5169   -5.9327   -0.6670 C   0  0  0  0  0  4           0  0  0
   -0.0593    2.6768   -4.9878 C   0  0  0  0  0  4           0  0  0
    1.4499   -0.0000   -0.0000 C   0  0  0  0  0  4           0  0  0
   -0.3297   -0.0006    2.5204 C   0  0  0  0  0  4           0  0  0
   -0.2528   -0.0150   -2.5008 C   0  0  0  0  0  4           0  0  0
    5.8340   -8.0027   -1.1299 C   0  0  0  0  0  4           0  0  0
    4.7077   -7.3886   -0.3185 C   0  0  0  0  0  4           0  0  0
   -1.0836    0.9972    3.3942 C   0  0  0  0  0  4           0  0  0
   -0.5939    1.0045    4.8401 C   0  0  0  0  0  4           0  0  0
   -1.3447    1.9990    5.7131 C   0  0  0  0  0  4           0  0  0
  1 10  1  0     0  0
  2 19  2  0     0  0
  3 20  2  0     0  0
  4 21  2  0     0  0
  5 19  1  0     0  0
  5 22  1  0     0  0
  6 20  1  0     0  0
  7 11  1  0     0  0
  7 12  1  0     0  0
  7 23  1  0     0  0
  8 10  1  0     0  0
  8 11  2  0     0  0
  9 13  1  0     0  0
  9 21  1  0     0  0
 10 12  2  0     0  0
 11 24  1  0     0  0
 12 25  1  0     0  0
 13 15  2  0     0  0
 13 16  1  0     0  0
 14 17  2  0     0  0
 14 18  1  0     0  0
 14 23  1  0     0  0
 15 17  1  0     0  0
 16 18  2  0     0  0
 19 25  1  0     0  0
 20 26  1  0     0  0
 21 27  1  0     0  0
 24 28  1  0     0  0
 26 27  1  0     0  0
 28 29  1  0     0  0
 29 30  1  0     0  0
M  END
> <standard_type>
pIC50

> <# Confs.>
25

> <canonical_smiles>
CCCCC1=NC(Cl)=C(CC(OC)=O)N1CC2=CC=C(NC(CCC(O)=O)=O)C=C2

> <standard_relation>
=

> <Publication_ID>
nan

> <predicted_activity_value>
5.0

> <actual_activity_value>
4.337242168318426

> <Compound>
23

> <standard_units>
nM

> hash
17748807188493933904

$$$$
23_
XXILIB    08252103513D 0   0.00000     0.00000

 30 31  0     1  0            999 V2000
   -3.5748    0.0265   -1.4596 Cl  0  0  0  0  0  1           0  0  0
    0.1941    2.3706   -2.3099 O   0  0  0  0  0  2           0  0  0
    5.3537  -10.0523    0.0471 O   0  0  0  0  0  2           0  0  0
    5.2139   -5.3768   -1.5138 O   0  0  0  0  0  2           0  0  0
   -0.2113    1.4000   -4.3592 O   0  0  0  0  0  2           0  0  0
    7.0219  -10.0299   -1.4979 O   0  0  0  0  0  2           0  0  0
    0.0000   -0.0000    0.0000 N   0  0  0  0  0  3           0  0  0
   -2.0822    0.0079    0.7623 N   0  0  0  0  0  3           0  0  0
    3.4961   -5.3416    0.0561 N   0  0  0  0  0  3           0  0  0
   -2.0956    0.0071   -0.6094 C   0  0  0  0  0  4           0  0  0
   -0.8139    0.0000    1.1146 C   0  0  0  0  0  4           0  0  0
   -0.8093   -0.0085   -1.1246 C   0  0  0  0  0  4           0  0  0
    3.0209   -4.0165    0.0152 C   0  0  0  0  0  4           0  0  0
    1.9910   -1.3970    0.0000 C   0  0  0  0  0  4           0  0  0
    1.9625   -3.6692    0.8604 C   0  0  0  0  0  4           0  0  0
    3.5692   -3.0495   -0.8334 C   0  0  0  0  0  4           0  0  0
    1.4527   -2.3689    0.8531 C   0  0  0  0  0  4           0  0  0
    3.0588   -1.7482   -0.8361 C   0  0  0  0  0  4           0  0  0
   -0.0568    1.3933   -3.0026 C   0  0  0  0  0  4           0  0  0
    6.0239   -9.4521   -0.7829 C   0  0  0  0  0  4           0  0  0
    4.5169   -5.9327   -0.6670 C   0  0  0  0  0  4           0  0  0
   -0.0593    2.6768   -4.9878 C   0  0  0  0  0  4           0  0  0
    1.4499   -0.0000   -0.0000 C   0  0  0  0  0  4           0  0  0
   -0.3297   -0.0006    2.5204 C   0  0  0  0  0  4           0  0  0
   -0.2528   -0.0150   -2.5008 C   0  0  0  0  0  4           0  0  0
    5.8340   -8.0027   -1.1299 C   0  0  0  0  0  4           0  0  0
    4.7077   -7.3886   -0.3185 C   0  0  0  0  0  4           0  0  0
   -1.0836    0.9972    3.3942 C   0  0  0  0  0  4           0  0  0
   -0.9512    2.4349    2.8984 C   0  0  0  0  0  4           0  0  0
   -1.7025    3.4315    3.7686 C   0  0  0  0  0  4           0  0  0
  1 10  1  0     0  0
  2 19  2  0     0  0
  3 20  2  0     0  0
  4 21  2  0     0  0
  5 19  1  0     0  0
  5 22  1  0     0  0
  6 20  1  0     0  0
  7 11  1  0     0  0
  7 12  1  0     0  0
  7 23  1  0     0  0
  8 10  1  0     0  0
  8 11  2  0     0  0
  9 13  1  0     0  0
  9 21  1  0     0  0
 10 12  2  0     0  0
 11 24  1  0     0  0
 12 25  1  0     0  0
 13 15  2  0     0  0
 13 16  1  0     0  0
 14 17  2  0     0  0
 14 18  1  0     0  0
 14 23  1  0     0  0
 15 17  1  0     0  0
 16 18  2  0     0  0
 19 25  1  0     0  0
 20 26  1  0     0  0
 21 27  1  0     0  0
 24 28  1  0     0  0
 26 27  1  0     0  0
 28 29  1  0     0  0
 29 30  1  0     0  0
M  END
> <standard_type>
pIC50

> <# Confs.>
25

> <canonical_smiles>
CCCCC1=NC(Cl)=C(CC(OC)=O)N1CC2=CC=C(NC(CCC(O)=O)=O)C=C2

> <standard_relation>
=

> <Publication_ID>
nan

> <predicted_activity_value>
5.0

> <actual_activity_value>
4.337242168318426

> <Compound>
23

> <standard_units>
nM

> hash
17748807188493933904

$$$$
23_
XXILIB    08252103513D 0   0.00000     0.00000

 30 31  0     1  0            999 V2000
   -3.5748    0.0265   -1.4596 Cl  0  0  0  0  0  1           0  0  0
    0.2063   -2.3958   -2.2827 O   0  0  0  0  0  2           0  0  0
    5.3890   10.0386    0.0093 O   0  0  0  0  0  2           0  0  0
    2.3404    6.4899    1.5678 O   0  0  0  0  0  2           0  0  0
   -0.1927   -1.4488   -4.3441 O   0  0  0  0  0  2           0  0  0
    4.1584   11.1391    1.5729 O   0  0  0  0  0  2           0  0  0
    0.0000   -0.0000    0.0000 N   0  0  0  0  0  3           0  0  0
   -2.0822    0.0079    0.7623 N   0  0  0  0  0  3           0  0  0
    3.5683    5.3136   -0.0214 N   0  0  0  0  0  3           0  0  0
   -2.0956    0.0071   -0.6094 C   0  0  0  0  0  4           0  0  0
   -0.8139    0.0000    1.1146 C   0  0  0  0  0  4           0  0  0
   -0.8093   -0.0085   -1.1246 C   0  0  0  0  0  4           0  0  0
    3.0219    4.0161    0.0141 C   0  0  0  0  0  4           0  0  0
    1.9910    1.3970    0.0000 C   0  0  0  0  0  4           0  0  0
    3.5549    3.0524   -0.8473 C   0  0  0  0  0  4           0  0  0
    1.9764    3.6665    0.8747 C   0  0  0  0  0  4           0  0  0
    3.0436    1.7526   -0.8531 C   0  0  0  0  0  4           0  0  0
    1.4690    2.3640    0.8689 C   0  0  0  0  0  4           0  0  0
   -0.0496   -1.4279   -2.9865 C   0  0  0  0  0  4           0  0  0
    4.5003   10.0423    0.8511 C   0  0  0  0  0  4           0  0  0
    3.2263    6.4326    0.7170 C   0  0  0  0  0  4           0  0  0
   -0.0216   -2.7296   -4.9596 C   0  0  0  0  0  4           0  0  0
    1.4499    0.0000   -0.0000 C   0  0  0  0  0  4           0  0  0
   -0.3297   -0.0006    2.5204 C   0  0  0  0  0  4           0  0  0
   -0.2528   -0.0150   -2.5008 C   0  0  0  0  0  4           0  0  0
    3.6638    8.8434    1.1974 C   0  0  0  0  0  4           0  0  0
    4.0666    7.6369    0.3691 C   0  0  0  0  0  4           0  0  0
   -1.0836    0.9972    3.3942 C   0  0  0  0  0  4           0  0  0
   -0.5939    1.0045    4.8401 C   0  0  0  0  0  4           0  0  0
   -1.3447    1.9990    5.7131 C   0  0  0  0  0  4           0  0  0
  1 10  1  0     0  0
  2 19  2  0     0  0
  3 20  2  0     0  0
  4 21  2  0     0  0
  5 19  1  0     0  0
  5 22  1  0     0  0
  6 20  1  0     0  0
  7 11  1  0     0  0
  7 12  1  0     0  0
  7 23  1  0     0  0
  8 10  1  0     0  0
  8 11  2  0     0  0
  9 13  1  0     0  0
  9 21  1  0     0  0
 10 12  2  0     0  0
 11 24  1  0     0  0
 12 25  1  0     0  0
 13 15  2  0     0  0
 13 16  1  0     0  0
 14 17  2  0     0  0
 14 18  1  0     0  0
 14 23  1  0     0  0
 15 17  1  0     0  0
 16 18  2  0     0  0
 19 25  1  0     0  0
 20 26  1  0     0  0
 21 27  1  0     0  0
 24 28  1  0     0  0
 26 27  1  0     0  0
 28 29  1  0     0  0
 29 30  1  0     0  0
M  END
> <standard_type>
pIC50

> <# Confs.>
25

> <canonical_smiles>
CCCCC1=NC(Cl)=C(CC(OC)=O)N1CC2=CC=C(NC(CCC(O)=O)=O)C=C2

> <standard_relation>
=

> <Publication_ID>
nan

> <predicted_activity_value>
5.0

> <actual_activity_value>
4.337242168318426

> <Compound>
23

> <standard_units>
nM

> hash
17748807188493933904

$$$$
23_
XXILIB    08252103513D 0   0.00000     0.00000

 30 31  0     1  0            999 V2000
   -3.5748    0.0265   -1.4596 Cl  0  0  0  0  0  1           0  0  0
    0.1941    2.3706   -2.3099 O   0  0  0  0  0  2           0  0  0
    5.3537  -10.0523    0.0471 O   0  0  0  0  0  2           0  0  0
    5.2139   -5.3768   -1.5138 O   0  0  0  0  0  2           0  0  0
   -0.2113    1.4000   -4.3592 O   0  0  0  0  0  2           0  0  0
    7.0219  -10.0299   -1.4979 O   0  0  0  0  0  2           0  0  0
    0.0000   -0.0000    0.0000 N   0  0  0  0  0  3           0  0  0
   -2.0822    0.0079    0.7623 N   0  0  0  0  0  3           0  0  0
    3.4961   -5.3416    0.0561 N   0  0  0  0  0  3           0  0  0
   -2.0956    0.0071   -0.6094 C   0  0  0  0  0  4           0  0  0
   -0.8139    0.0000    1.1146 C   0  0  0  0  0  4           0  0  0
   -0.8093   -0.0085   -1.1246 C   0  0  0  0  0  4           0  0  0
    3.0209   -4.0165    0.0152 C   0  0  0  0  0  4           0  0  0
    1.9910   -1.3970    0.0000 C   0  0  0  0  0  4           0  0  0
    1.9625   -3.6692    0.8604 C   0  0  0  0  0  4           0  0  0
    3.5692   -3.0495   -0.8334 C   0  0  0  0  0  4           0  0  0
    1.4527   -2.3689    0.8531 C   0  0  0  0  0  4           0  0  0
    3.0588   -1.7482   -0.8361 C   0  0  0  0  0  4           0  0  0
   -0.0568    1.3933   -3.0026 C   0  0  0  0  0  4           0  0  0
    6.0239   -9.4521   -0.7829 C   0  0  0  0  0  4           0  0  0
    4.5169   -5.9327   -0.6670 C   0  0  0  0  0  4           0  0  0
   -0.0593    2.6768   -4.9878 C   0  0  0  0  0  4           0  0  0
    1.4499   -0.0000   -0.0000 C   0  0  0  0  0  4           0  0  0
   -0.3297   -0.0006    2.5204 C   0  0  0  0  0  4           0  0  0
   -0.2528   -0.0150   -2.5008 C   0  0  0  0  0  4           0  0  0
    5.8340   -8.0027   -1.1299 C   0  0  0  0  0  4           0  0  0
    4.7077   -7.3886   -0.3185 C   0  0  0  0  0  4           0  0  0
   -1.0844   -0.9983    3.3936 C   0  0  0  0  0  4           0  0  0
   -0.5947   -1.0068    4.8395 C   0  0  0  0  0  4           0  0  0
   -1.3462   -2.0012    5.7120 C   0  0  0  0  0  4           0  0  0
  1 10  1  0     0  0
  2 19  2  0     0  0
  3 20  2  0     0  0
  4 21  2  0     0  0
  5 19  1  0     0  0
  5 22  1  0     0  0
  6 20  1  0     0  0
  7 11  1  0     0  0
  7 12  1  0     0  0
  7 23  1  0     0  0
  8 10  1  0     0  0
  8 11  2  0     0  0
  9 13  1  0     0  0
  9 21  1  0     0  0
 10 12  2  0     0  0
 11 24  1  0     0  0
 12 25  1  0     0  0
 13 15  2  0     0  0
 13 16  1  0     0  0
 14 17  2  0     0  0
 14 18  1  0     0  0
 14 23  1  0     0  0
 15 17  1  0     0  0
 16 18  2  0     0  0
 19 25  1  0     0  0
 20 26  1  0     0  0
 21 27  1  0     0  0
 24 28  1  0     0  0
 26 27  1  0     0  0
 28 29  1  0     0  0
 29 30  1  0     0  0
M  END
> <standard_type>
pIC50

> <# Confs.>
25

> <canonical_smiles>
CCCCC1=NC(Cl)=C(CC(OC)=O)N1CC2=CC=C(NC(CCC(O)=O)=O)C=C2

> <standard_relation>
=

> <Publication_ID>
nan

> <predicted_activity_value>
5.0

> <actual_activity_value>
4.337242168318426

> <Compound>
23

> <standard_units>
nM

> hash
17748807188493933904

$$$$
23_
XXILIB    08252103513D 0   0.00000     0.00000

 30 31  0     1  0            999 V2000
   -3.5748    0.0265   -1.4596 Cl  0  0  0  0  0  1           0  0  0
    0.2063   -2.3958   -2.2827 O   0  0  0  0  0  2           0  0  0
    5.3890   10.0386    0.0093 O   0  0  0  0  0  2           0  0  0
    2.3404    6.4899    1.5678 O   0  0  0  0  0  2           0  0  0
   -0.1927   -1.4488   -4.3441 O   0  0  0  0  0  2           0  0  0
    4.1584   11.1391    1.5729 O   0  0  0  0  0  2           0  0  0
    0.0000   -0.0000    0.0000 N   0  0  0  0  0  3           0  0  0
   -2.0822    0.0079    0.7623 N   0  0  0  0  0  3           0  0  0
    3.5683    5.3136   -0.0214 N   0  0  0  0  0  3           0  0  0
   -2.0956    0.0071   -0.6094 C   0  0  0  0  0  4           0  0  0
   -0.8139    0.0000    1.1146 C   0  0  0  0  0  4           0  0  0
   -0.8093   -0.0085   -1.1246 C   0  0  0  0  0  4           0  0  0
    3.0219    4.0161    0.0141 C   0  0  0  0  0  4           0  0  0
    1.9910    1.3970    0.0000 C   0  0  0  0  0  4           0  0  0
    3.5549    3.0524   -0.8473 C   0  0  0  0  0  4           0  0  0
    1.9764    3.6665    0.8747 C   0  0  0  0  0  4           0  0  0
    3.0436    1.7526   -0.8531 C   0  0  0  0  0  4           0  0  0
    1.4690    2.3640    0.8689 C   0  0  0  0  0  4           0  0  0
   -0.0496   -1.4279   -2.9865 C   0  0  0  0  0  4           0  0  0
    4.5003   10.0423    0.8511 C   0  0  0  0  0  4           0  0  0
    3.2263    6.4326    0.7170 C   0  0  0  0  0  4           0  0  0
   -0.0216   -2.7296   -4.9596 C   0  0  0  0  0  4           0  0  0
    1.4499    0.0000   -0.0000 C   0  0  0  0  0  4           0  0  0
   -0.3297   -0.0006    2.5204 C   0  0  0  0  0  4           0  0  0
   -0.2528   -0.0150   -2.5008 C   0  0  0  0  0  4           0  0  0
    3.6638    8.8434    1.1974 C   0  0  0  0  0  4           0  0  0
    4.0666    7.6369    0.3691 C   0  0  0  0  0  4           0  0  0
   -1.0844   -0.9983    3.3936 C   0  0  0  0  0  4           0  0  0
   -0.5947   -1.0068    4.8395 C   0  0  0  0  0  4           0  0  0
   -1.3462   -2.0012    5.7120 C   0  0  0  0  0  4           0  0  0
  1 10  1  0     0  0
  2 19  2  0     0  0
  3 20  2  0     0  0
  4 21  2  0     0  0
  5 19  1  0     0  0
  5 22  1  0     0  0
  6 20  1  0     0  0
  7 11  1  0     0  0
  7 12  1  0     0  0
  7 23  1  0     0  0
  8 10  1  0     0  0
  8 11  2  0     0  0
  9 13  1  0     0  0
  9 21  1  0     0  0
 10 12  2  0     0  0
 11 24  1  0     0  0
 12 25  1  0     0  0
 13 15  2  0     0  0
 13 16  1  0     0  0
 14 17  2  0     0  0
 14 18  1  0     0  0
 14 23  1  0     0  0
 15 17  1  0     0  0
 16 18  2  0     0  0
 19 25  1  0     0  0
 20 26  1  0     0  0
 21 27  1  0     0  0
 24 28  1  0     0  0
 26 27  1  0     0  0
 28 29  1  0     0  0
 29 30  1  0     0  0
M  END
> <standard_type>
pIC50

> <# Confs.>
25

> <canonical_smiles>
CCCCC1=NC(Cl)=C(CC(OC)=O)N1CC2=CC=C(NC(CCC(O)=O)=O)C=C2

> <standard_relation>
=

> <Publication_ID>
nan

> <predicted_activity_value>
5.0

> <actual_activity_value>
4.337242168318426

> <Compound>
23

> <standard_units>
nM

> hash
17748807188493933904

$$$$
23_
XXILIB    08252103513D 0   0.00000     0.00000

 30 31  0     1  0            999 V2000
   -3.5748    0.0265   -1.4596 Cl  0  0  0  0  0  1           0  0  0
    0.2063   -2.3958   -2.2827 O   0  0  0  0  0  2           0  0  0
    5.3890   10.0386    0.0093 O   0  0  0  0  0  2           0  0  0
    2.3404    6.4899    1.5678 O   0  0  0  0  0  2           0  0  0
   -0.1927   -1.4488   -4.3441 O   0  0  0  0  0  2           0  0  0
    4.1584   11.1391    1.5729 O   0  0  0  0  0  2           0  0  0
    0.0000   -0.0000    0.0000 N   0  0  0  0  0  3           0  0  0
   -2.0822    0.0079    0.7623 N   0  0  0  0  0  3           0  0  0
    3.5683    5.3136   -0.0214 N   0  0  0  0  0  3           0  0  0
   -2.0956    0.0071   -0.6094 C   0  0  0  0  0  4           0  0  0
   -0.8139    0.0000    1.1146 C   0  0  0  0  0  4           0  0  0
   -0.8093   -0.0085   -1.1246 C   0  0  0  0  0  4           0  0  0
    3.0219    4.0161    0.0141 C   0  0  0  0  0  4           0  0  0
    1.9910    1.3970    0.0000 C   0  0  0  0  0  4           0  0  0
    3.5549    3.0524   -0.8473 C   0  0  0  0  0  4           0  0  0
    1.9764    3.6665    0.8747 C   0  0  0  0  0  4           0  0  0
    3.0436    1.7526   -0.8531 C   0  0  0  0  0  4           0  0  0
    1.4690    2.3640    0.8689 C   0  0  0  0  0  4           0  0  0
   -0.0496   -1.4279   -2.9865 C   0  0  0  0  0  4           0  0  0
    4.5003   10.0423    0.8511 C   0  0  0  0  0  4           0  0  0
    3.2263    6.4326    0.7170 C   0  0  0  0  0  4           0  0  0
   -0.0216   -2.7296   -4.9596 C   0  0  0  0  0  4           0  0  0
    1.4499    0.0000   -0.0000 C   0  0  0  0  0  4           0  0  0
   -0.3297   -0.0006    2.5204 C   0  0  0  0  0  4           0  0  0
   -0.2528   -0.0150   -2.5008 C   0  0  0  0  0  4           0  0  0
    3.6638    8.8434    1.1974 C   0  0  0  0  0  4           0  0  0
    4.0666    7.6369    0.3691 C   0  0  0  0  0  4           0  0  0
   -1.0844   -0.9983    3.3936 C   0  0  0  0  0  4           0  0  0
   -0.9531   -2.4358    2.8970 C   0  0  0  0  0  4           0  0  0
   -1.7052   -3.4323    3.7666 C   0  0  0  0  0  4           0  0  0
  1 10  1  0     0  0
  2 19  2  0     0  0
  3 20  2  0     0  0
  4 21  2  0     0  0
  5 19  1  0     0  0
  5 22  1  0     0  0
  6 20  1  0     0  0
  7 11  1  0     0  0
  7 12  1  0     0  0
  7 23  1  0     0  0
  8 10  1  0     0  0
  8 11  2  0     0  0
  9 13  1  0     0  0
  9 21  1  0     0  0
 10 12  2  0     0  0
 11 24  1  0     0  0
 12 25  1  0     0  0
 13 15  2  0     0  0
 13 16  1  0     0  0
 14 17  2  0     0  0
 14 18  1  0     0  0
 14 23  1  0     0  0
 15 17  1  0     0  0
 16 18  2  0     0  0
 19 25  1  0     0  0
 20 26  1  0     0  0
 21 27  1  0     0  0
 24 28  1  0     0  0
 26 27  1  0     0  0
 28 29  1  0     0  0
 29 30  1  0     0  0
M  END
> <standard_type>
pIC50

> <# Confs.>
25

> <canonical_smiles>
CCCCC1=NC(Cl)=C(CC(OC)=O)N1CC2=CC=C(NC(CCC(O)=O)=O)C=C2

> <standard_relation>
=

> <Publication_ID>
nan

> <predicted_activity_value>
5.0

> <actual_activity_value>
4.337242168318426

> <Compound>
23

> <standard_units>
nM

> hash
17748807188493933904

$$$$
23_
XXILIB    08252103513D 0   0.00000     0.00000

 30 31  0     1  0            999 V2000
   -3.5748    0.0265   -1.4596 Cl  0  0  0  0  0  1           0  0  0
    0.2063   -2.3958   -2.2827 O   0  0  0  0  0  2           0  0  0
    5.3537   10.0523   -0.0471 O   0  0  0  0  0  2           0  0  0
    5.2139    5.3768    1.5138 O   0  0  0  0  0  2           0  0  0
   -0.1927   -1.4488   -4.3441 O   0  0  0  0  0  2           0  0  0
    7.0219   10.0299    1.4979 O   0  0  0  0  0  2           0  0  0
    0.0000   -0.0000    0.0000 N   0  0  0  0  0  3           0  0  0
   -2.0822    0.0079    0.7623 N   0  0  0  0  0  3           0  0  0
    3.4961    5.3416   -0.0561 N   0  0  0  0  0  3           0  0  0
   -2.0956    0.0071   -0.6094 C   0  0  0  0  0  4           0  0  0
   -0.8139    0.0000    1.1146 C   0  0  0  0  0  4           0  0  0
   -0.8093   -0.0085   -1.1246 C   0  0  0  0  0  4           0  0  0
    3.0209    4.0165   -0.0152 C   0  0  0  0  0  4           0  0  0
    1.9910    1.3970   -0.0000 C   0  0  0  0  0  4           0  0  0
    1.9625    3.6692   -0.8604 C   0  0  0  0  0  4           0  0  0
    3.5692    3.0495    0.8334 C   0  0  0  0  0  4           0  0  0
    1.4527    2.3689   -0.8531 C   0  0  0  0  0  4           0  0  0
    3.0588    1.7482    0.8361 C   0  0  0  0  0  4           0  0  0
   -0.0496   -1.4279   -2.9865 C   0  0  0  0  0  4           0  0  0
    6.0239    9.4521    0.7829 C   0  0  0  0  0  4           0  0  0
    4.5169    5.9327    0.6670 C   0  0  0  0  0  4           0  0  0
   -0.0216   -2.7296   -4.9596 C   0  0  0  0  0  4           0  0  0
    1.4499    0.0000    0.0000 C   0  0  0  0  0  4           0  0  0
   -0.3297   -0.0006    2.5204 C   0  0  0  0  0  4           0  0  0
   -0.2528   -0.0150   -2.5008 C   0  0  0  0  0  4           0  0  0
    5.8340    8.0027    1.1299 C   0  0  0  0  0  4           0  0  0
    4.7077    7.3886    0.3185 C   0  0  0  0  0  4           0  0  0
   -0.1401    1.4101    3.0693 C   0  0  0  0  0  4           0  0  0
    0.3571    1.4207    4.5127 C   0  0  0  0  0  4           0  0  0
    0.5467    2.8269    5.0619 C   0  0  0  0  0  4           0  0  0
  1 10  1  0     0  0
  2 19  2  0     0  0
  3 20  2  0     0  0
  4 21  2  0     0  0
  5 19  1  0     0  0
  5 22  1  0     0  0
  6 20  1  0     0  0
  7 11  1  0     0  0
  7 12  1  0     0  0
  7 23  1  0     0  0
  8 10  1  0     0  0
  8 11  2  0     0  0
  9 13  1  0     0  0
  9 21  1  0     0  0
 10 12  2  0     0  0
 11 24  1  0     0  0
 12 25  1  0     0  0
 13 15  2  0     0  0
 13 16  1  0     0  0
 14 17  2  0     0  0
 14 18  1  0     0  0
 14 23  1  0     0  0
 15 17  1  0     0  0
 16 18  2  0     0  0
 19 25  1  0     0  0
 20 26  1  0     0  0
 21 27  1  0     0  0
 24 28  1  0     0  0
 26 27  1  0     0  0
 28 29  1  0     0  0
 29 30  1  0     0  0
M  END
> <standard_type>
pIC50

> <# Confs.>
25

> <canonical_smiles>
CCCCC1=NC(Cl)=C(CC(OC)=O)N1CC2=CC=C(NC(CCC(O)=O)=O)C=C2

> <standard_relation>
=

> <Publication_ID>
nan

> <predicted_activity_value>
5.0

> <actual_activity_value>
4.337242168318426

> <Compound>
23

> <standard_units>
nM

> hash
17748807188493933904

$$$$
23_
XXILIB    08252103513D 0   0.00000     0.00000

 30 31  0     1  0            999 V2000
   -3.5748    0.0265   -1.4596 Cl  0  0  0  0  0  1           0  0  0
    0.2063   -2.3958   -2.2827 O   0  0  0  0  0  2           0  0  0
    5.3537   10.0523   -0.0471 O   0  0  0  0  0  2           0  0  0
    5.2139    5.3768    1.5138 O   0  0  0  0  0  2           0  0  0
   -0.1927   -1.4488   -4.3441 O   0  0  0  0  0  2           0  0  0
    7.0219   10.0299    1.4979 O   0  0  0  0  0  2           0  0  0
    0.0000   -0.0000    0.0000 N   0  0  0  0  0  3           0  0  0
   -2.0822    0.0079    0.7623 N   0  0  0  0  0  3           0  0  0
    3.4961    5.3416   -0.0561 N   0  0  0  0  0  3           0  0  0
   -2.0956    0.0071   -0.6094 C   0  0  0  0  0  4           0  0  0
   -0.8139    0.0000    1.1146 C   0  0  0  0  0  4           0  0  0
   -0.8093   -0.0085   -1.1246 C   0  0  0  0  0  4           0  0  0
    3.0209    4.0165   -0.0152 C   0  0  0  0  0  4           0  0  0
    1.9910    1.3970   -0.0000 C   0  0  0  0  0  4           0  0  0
    1.9625    3.6692   -0.8604 C   0  0  0  0  0  4           0  0  0
    3.5692    3.0495    0.8334 C   0  0  0  0  0  4           0  0  0
    1.4527    2.3689   -0.8531 C   0  0  0  0  0  4           0  0  0
    3.0588    1.7482    0.8361 C   0  0  0  0  0  4           0  0  0
   -0.0496   -1.4279   -2.9865 C   0  0  0  0  0  4           0  0  0
    6.0239    9.4521    0.7829 C   0  0  0  0  0  4           0  0  0
    4.5169    5.9327    0.6670 C   0  0  0  0  0  4           0  0  0
   -0.0216   -2.7296   -4.9596 C   0  0  0  0  0  4           0  0  0
    1.4499    0.0000    0.0000 C   0  0  0  0  0  4           0  0  0
   -0.3297   -0.0006    2.5204 C   0  0  0  0  0  4           0  0  0
   -0.2528   -0.0150   -2.5008 C   0  0  0  0  0  4           0  0  0
    5.8340    8.0027    1.1299 C   0  0  0  0  0  4           0  0  0
    4.7077    7.3886    0.3185 C   0  0  0  0  0  4           0  0  0
   -0.1413   -1.4118    3.0685 C   0  0  0  0  0  4           0  0  0
    0.3559   -1.4236    4.5118 C   0  0  0  0  0  4           0  0  0
    0.5445   -2.8302    5.0603 C   0  0  0  0  0  4           0  0  0
  1 10  1  0     0  0
  2 19  2  0     0  0
  3 20  2  0     0  0
  4 21  2  0     0  0
  5 19  1  0     0  0
  5 22  1  0     0  0
  6 20  1  0     0  0
  7 11  1  0     0  0
  7 12  1  0     0  0
  7 23  1  0     0  0
  8 10  1  0     0  0
  8 11  2  0     0  0
  9 13  1  0     0  0
  9 21  1  0     0  0
 10 12  2  0     0  0
 11 24  1  0     0  0
 12 25  1  0     0  0
 13 15  2  0     0  0
 13 16  1  0     0  0
 14 17  2  0     0  0
 14 18  1  0     0  0
 14 23  1  0     0  0
 15 17  1  0     0  0
 16 18  2  0     0  0
 19 25  1  0     0  0
 20 26  1  0     0  0
 21 27  1  0     0  0
 24 28  1  0     0  0
 26 27  1  0     0  0
 28 29  1  0     0  0
 29 30  1  0     0  0
M  END
> <standard_type>
pIC50

> <# Confs.>
25

> <canonical_smiles>
CCCCC1=NC(Cl)=C(CC(OC)=O)N1CC2=CC=C(NC(CCC(O)=O)=O)C=C2

> <standard_relation>
=

> <Publication_ID>
nan

> <predicted_activity_value>
5.0

> <actual_activity_value>
4.337242168318426

> <Compound>
23

> <standard_units>
nM

> hash
17748807188493933904

$$$$
23_
XXILIB    08252103513D 0   0.00000     0.00000

 30 31  0     1  0            999 V2000
   -3.5748    0.0265   -1.4596 Cl  0  0  0  0  0  1           0  0  0
   -0.7146   -2.4003   -2.6550 O   0  0  0  0  0  2           0  0  0
    5.3537  -10.0523    0.0471 O   0  0  0  0  0  2           0  0  0
    5.2139   -5.3768   -1.5138 O   0  0  0  0  0  2           0  0  0
    1.0043   -1.4449   -3.8544 O   0  0  0  0  0  2           0  0  0
    7.0219  -10.0299   -1.4979 O   0  0  0  0  0  2           0  0  0
    0.0000   -0.0000    0.0000 N   0  0  0  0  0  3           0  0  0
   -2.0822    0.0079    0.7623 N   0  0  0  0  0  3           0  0  0
    3.4961   -5.3416    0.0561 N   0  0  0  0  0  3           0  0  0
   -2.0956    0.0071   -0.6094 C   0  0  0  0  0  4           0  0  0
   -0.8139    0.0000    1.1146 C   0  0  0  0  0  4           0  0  0
   -0.8093   -0.0085   -1.1246 C   0  0  0  0  0  4           0  0  0
    3.0209   -4.0165    0.0152 C   0  0  0  0  0  4           0  0  0
    1.9910   -1.3970    0.0000 C   0  0  0  0  0  4           0  0  0
    1.9625   -3.6692    0.8604 C   0  0  0  0  0  4           0  0  0
    3.5692   -3.0495   -0.8334 C   0  0  0  0  0  4           0  0  0
    1.4527   -2.3689    0.8531 C   0  0  0  0  0  4           0  0  0
    3.0588   -1.7482   -0.8361 C   0  0  0  0  0  4           0  0  0
   -0.0496   -1.4279   -2.9865 C   0  0  0  0  0  4           0  0  0
    6.0239   -9.4521   -0.7829 C   0  0  0  0  0  4           0  0  0
    4.5169   -5.9327   -0.6670 C   0  0  0  0  0  4           0  0  0
    1.3278   -2.7273   -4.4017 C   0  0  0  0  0  4           0  0  0
    1.4499   -0.0000   -0.0000 C   0  0  0  0  0  4           0  0  0
   -0.3297   -0.0006    2.5204 C   0  0  0  0  0  4           0  0  0
   -0.2528   -0.0150   -2.5008 C   0  0  0  0  0  4           0  0  0
    5.8340   -8.0027   -1.1299 C   0  0  0  0  0  4           0  0  0
    4.7077   -7.3886   -0.3185 C   0  0  0  0  0  4           0  0  0
   -1.0836    0.9972    3.3942 C   0  0  0  0  0  4           0  0  0
   -0.5939    1.0045    4.8401 C   0  0  0  0  0  4           0  0  0
   -1.3447    1.9990    5.7131 C   0  0  0  0  0  4           0  0  0
  1 10  1  0     0  0
  2 19  2  0     0  0
  3 20  2  0     0  0
  4 21  2  0     0  0
  5 19  1  0     0  0
  5 22  1  0     0  0
  6 20  1  0     0  0
  7 11  1  0     0  0
  7 12  1  0     0  0
  7 23  1  0     0  0
  8 10  1  0     0  0
  8 11  2  0     0  0
  9 13  1  0     0  0
  9 21  1  0     0  0
 10 12  2  0     0  0
 11 24  1  0     0  0
 12 25  1  0     0  0
 13 15  2  0     0  0
 13 16  1  0     0  0
 14 17  2  0     0  0
 14 18  1  0     0  0
 14 23  1  0     0  0
 15 17  1  0     0  0
 16 18  2  0     0  0
 19 25  1  0     0  0
 20 26  1  0     0  0
 21 27  1  0     0  0
 24 28  1  0     0  0
 26 27  1  0     0  0
 28 29  1  0     0  0
 29 30  1  0     0  0
M  END
> <standard_type>
pIC50

> <# Confs.>
25

> <canonical_smiles>
CCCCC1=NC(Cl)=C(CC(OC)=O)N1CC2=CC=C(NC(CCC(O)=O)=O)C=C2

> <standard_relation>
=

> <Publication_ID>
nan

> <predicted_activity_value>
5.0

> <actual_activity_value>
4.337242168318426

> <Compound>
23

> <standard_units>
nM

> hash
17748807188493933904

$$$$
23_
XXILIB    08252103513D 0   0.00000     0.00000

 30 31  0     1  0            999 V2000
   -3.5748    0.0265   -1.4596 Cl  0  0  0  0  0  1           0  0  0
   -0.7146   -2.4003   -2.6550 O   0  0  0  0  0  2           0  0  0
    5.3537  -10.0523    0.0471 O   0  0  0  0  0  2           0  0  0
    5.2139   -5.3768   -1.5138 O   0  0  0  0  0  2           0  0  0
    1.0043   -1.4449   -3.8544 O   0  0  0  0  0  2           0  0  0
    7.0219  -10.0299   -1.4979 O   0  0  0  0  0  2           0  0  0
    0.0000   -0.0000    0.0000 N   0  0  0  0  0  3           0  0  0
   -2.0822    0.0079    0.7623 N   0  0  0  0  0  3           0  0  0
    3.4961   -5.3416    0.0561 N   0  0  0  0  0  3           0  0  0
   -2.0956    0.0071   -0.6094 C   0  0  0  0  0  4           0  0  0
   -0.8139    0.0000    1.1146 C   0  0  0  0  0  4           0  0  0
   -0.8093   -0.0085   -1.1246 C   0  0  0  0  0  4           0  0  0
    3.0209   -4.0165    0.0152 C   0  0  0  0  0  4           0  0  0
    1.9910   -1.3970    0.0000 C   0  0  0  0  0  4           0  0  0
    1.9625   -3.6692    0.8604 C   0  0  0  0  0  4           0  0  0
    3.5692   -3.0495   -0.8334 C   0  0  0  0  0  4           0  0  0
    1.4527   -2.3689    0.8531 C   0  0  0  0  0  4           0  0  0
    3.0588   -1.7482   -0.8361 C   0  0  0  0  0  4           0  0  0
   -0.0496   -1.4279   -2.9865 C   0  0  0  0  0  4           0  0  0
    6.0239   -9.4521   -0.7829 C   0  0  0  0  0  4           0  0  0
    4.5169   -5.9327   -0.6670 C   0  0  0  0  0  4           0  0  0
    1.3278   -2.7273   -4.4017 C   0  0  0  0  0  4           0  0  0
    1.4499   -0.0000   -0.0000 C   0  0  0  0  0  4           0  0  0
   -0.3297   -0.0006    2.5204 C   0  0  0  0  0  4           0  0  0
   -0.2528   -0.0150   -2.5008 C   0  0  0  0  0  4           0  0  0
    5.8340   -8.0027   -1.1299 C   0  0  0  0  0  4           0  0  0
    4.7077   -7.3886   -0.3185 C   0  0  0  0  0  4           0  0  0
   -1.0836    0.9972    3.3942 C   0  0  0  0  0  4           0  0  0
   -0.9512    2.4349    2.8984 C   0  0  0  0  0  4           0  0  0
   -1.7025    3.4315    3.7686 C   0  0  0  0  0  4           0  0  0
  1 10  1  0     0  0
  2 19  2  0     0  0
  3 20  2  0     0  0
  4 21  2  0     0  0
  5 19  1  0     0  0
  5 22  1  0     0  0
  6 20  1  0     0  0
  7 11  1  0     0  0
  7 12  1  0     0  0
  7 23  1  0     0  0
  8 10  1  0     0  0
  8 11  2  0     0  0
  9 13  1  0     0  0
  9 21  1  0     0  0
 10 12  2  0     0  0
 11 24  1  0     0  0
 12 25  1  0     0  0
 13 15  2  0     0  0
 13 16  1  0     0  0
 14 17  2  0     0  0
 14 18  1  0     0  0
 14 23  1  0     0  0
 15 17  1  0     0  0
 16 18  2  0     0  0
 19 25  1  0     0  0
 20 26  1  0     0  0
 21 27  1  0     0  0
 24 28  1  0     0  0
 26 27  1  0     0  0
 28 29  1  0     0  0
 29 30  1  0     0  0
M  END
> <standard_type>
pIC50

> <# Confs.>
25

> <canonical_smiles>
CCCCC1=NC(Cl)=C(CC(OC)=O)N1CC2=CC=C(NC(CCC(O)=O)=O)C=C2

> <standard_relation>
=

> <Publication_ID>
nan

> <predicted_activity_value>
5.0

> <actual_activity_value>
4.337242168318426

> <Compound>
23

> <standard_units>
nM

> hash
17748807188493933904

$$$$
23_
XXILIB    08252103513D 0   0.00000     0.00000

 30 31  0     1  0            999 V2000
   -3.5748    0.0265   -1.4596 Cl  0  0  0  0  0  1           0  0  0
    0.2063   -2.3958   -2.2827 O   0  0  0  0  0  2           0  0  0
    5.3537   10.0523   -0.0471 O   0  0  0  0  0  2           0  0  0
    5.2139    5.3768    1.5138 O   0  0  0  0  0  2           0  0  0
   -0.1927   -1.4488   -4.3441 O   0  0  0  0  0  2           0  0  0
    7.0219   10.0299    1.4979 O   0  0  0  0  0  2           0  0  0
    0.0000   -0.0000    0.0000 N   0  0  0  0  0  3           0  0  0
   -2.0822    0.0079    0.7623 N   0  0  0  0  0  3           0  0  0
    3.4961    5.3416   -0.0561 N   0  0  0  0  0  3           0  0  0
   -2.0956    0.0071   -0.6094 C   0  0  0  0  0  4           0  0  0
   -0.8139    0.0000    1.1146 C   0  0  0  0  0  4           0  0  0
   -0.8093   -0.0085   -1.1246 C   0  0  0  0  0  4           0  0  0
    3.0209    4.0165   -0.0152 C   0  0  0  0  0  4           0  0  0
    1.9910    1.3970   -0.0000 C   0  0  0  0  0  4           0  0  0
    1.9625    3.6692   -0.8604 C   0  0  0  0  0  4           0  0  0
    3.5692    3.0495    0.8334 C   0  0  0  0  0  4           0  0  0
    1.4527    2.3689   -0.8531 C   0  0  0  0  0  4           0  0  0
    3.0588    1.7482    0.8361 C   0  0  0  0  0  4           0  0  0
   -0.0496   -1.4279   -2.9865 C   0  0  0  0  0  4           0  0  0
    6.0239    9.4521    0.7829 C   0  0  0  0  0  4           0  0  0
    4.5169    5.9327    0.6670 C   0  0  0  0  0  4           0  0  0
   -0.0216   -2.7296   -4.9596 C   0  0  0  0  0  4           0  0  0
    1.4499    0.0000    0.0000 C   0  0  0  0  0  4           0  0  0
   -0.3297   -0.0006    2.5204 C   0  0  0  0  0  4           0  0  0
   -0.2528   -0.0150   -2.5008 C   0  0  0  0  0  4           0  0  0
    5.8340    8.0027    1.1299 C   0  0  0  0  0  4           0  0  0
    4.7077    7.3886    0.3185 C   0  0  0  0  0  4           0  0  0
   -1.0836    0.9972    3.3942 C   0  0  0  0  0  4           0  0  0
   -0.9512    2.4349    2.8984 C   0  0  0  0  0  4           0  0  0
   -1.7025    3.4315    3.7686 C   0  0  0  0  0  4           0  0  0
  1 10  1  0     0  0
  2 19  2  0     0  0
  3 20  2  0     0  0
  4 21  2  0     0  0
  5 19  1  0     0  0
  5 22  1  0     0  0
  6 20  1  0     0  0
  7 11  1  0     0  0
  7 12  1  0     0  0
  7 23  1  0     0  0
  8 10  1  0     0  0
  8 11  2  0     0  0
  9 13  1  0     0  0
  9 21  1  0     0  0
 10 12  2  0     0  0
 11 24  1  0     0  0
 12 25  1  0     0  0
 13 15  2  0     0  0
 13 16  1  0     0  0
 14 17  2  0     0  0
 14 18  1  0     0  0
 14 23  1  0     0  0
 15 17  1  0     0  0
 16 18  2  0     0  0
 19 25  1  0     0  0
 20 26  1  0     0  0
 21 27  1  0     0  0
 24 28  1  0     0  0
 26 27  1  0     0  0
 28 29  1  0     0  0
 29 30  1  0     0  0
M  END
> <standard_type>
pIC50

> <# Confs.>
25

> <canonical_smiles>
CCCCC1=NC(Cl)=C(CC(OC)=O)N1CC2=CC=C(NC(CCC(O)=O)=O)C=C2

> <standard_relation>
=

> <Publication_ID>
nan

> <predicted_activity_value>
5.0

> <actual_activity_value>
4.337242168318426

> <Compound>
23

> <standard_units>
nM

> hash
17748807188493933904

$$$$
23_
XXILIB    08252103513D 0   0.00000     0.00000

 30 31  0     1  0            999 V2000
   -3.5748    0.0265   -1.4596 Cl  0  0  0  0  0  1           0  0  0
    0.2063   -2.3958   -2.2827 O   0  0  0  0  0  2           0  0  0
    5.3537   10.0523   -0.0471 O   0  0  0  0  0  2           0  0  0
    5.2139    5.3768    1.5138 O   0  0  0  0  0  2           0  0  0
   -0.1927   -1.4488   -4.3441 O   0  0  0  0  0  2           0  0  0
    7.0219   10.0299    1.4979 O   0  0  0  0  0  2           0  0  0
    0.0000   -0.0000    0.0000 N   0  0  0  0  0  3           0  0  0
   -2.0822    0.0079    0.7623 N   0  0  0  0  0  3           0  0  0
    3.4961    5.3416   -0.0561 N   0  0  0  0  0  3           0  0  0
   -2.0956    0.0071   -0.6094 C   0  0  0  0  0  4           0  0  0
   -0.8139    0.0000    1.1146 C   0  0  0  0  0  4           0  0  0
   -0.8093   -0.0085   -1.1246 C   0  0  0  0  0  4           0  0  0
    3.0209    4.0165   -0.0152 C   0  0  0  0  0  4           0  0  0
    1.9910    1.3970   -0.0000 C   0  0  0  0  0  4           0  0  0
    1.9625    3.6692   -0.8604 C   0  0  0  0  0  4           0  0  0
    3.5692    3.0495    0.8334 C   0  0  0  0  0  4           0  0  0
    1.4527    2.3689   -0.8531 C   0  0  0  0  0  4           0  0  0
    3.0588    1.7482    0.8361 C   0  0  0  0  0  4           0  0  0
   -0.0496   -1.4279   -2.9865 C   0  0  0  0  0  4           0  0  0
    6.0239    9.4521    0.7829 C   0  0  0  0  0  4           0  0  0
    4.5169    5.9327    0.6670 C   0  0  0  0  0  4           0  0  0
   -0.0216   -2.7296   -4.9596 C   0  0  0  0  0  4           0  0  0
    1.4499    0.0000    0.0000 C   0  0  0  0  0  4           0  0  0
   -0.3297   -0.0006    2.5204 C   0  0  0  0  0  4           0  0  0
   -0.2528   -0.0150   -2.5008 C   0  0  0  0  0  4           0  0  0
    5.8340    8.0027    1.1299 C   0  0  0  0  0  4           0  0  0
    4.7077    7.3886    0.3185 C   0  0  0  0  0  4           0  0  0
   -1.4747   -0.0004    3.5285 C   0  0  0  0  0  4           0  0  0
   -0.9881   -0.0010    4.9754 C   0  0  0  0  0  4           0  0  0
   -2.1287   -0.0009    5.9824 C   0  0  0  0  0  4           0  0  0
  1 10  1  0     0  0
  2 19  2  0     0  0
  3 20  2  0     0  0
  4 21  2  0     0  0
  5 19  1  0     0  0
  5 22  1  0     0  0
  6 20  1  0     0  0
  7 11  1  0     0  0
  7 12  1  0     0  0
  7 23  1  0     0  0
  8 10  1  0     0  0
  8 11  2  0     0  0
  9 13  1  0     0  0
  9 21  1  0     0  0
 10 12  2  0     0  0
 11 24  1  0     0  0
 12 25  1  0     0  0
 13 15  2  0     0  0
 13 16  1  0     0  0
 14 17  2  0     0  0
 14 18  1  0     0  0
 14 23  1  0     0  0
 15 17  1  0     0  0
 16 18  2  0     0  0
 19 25  1  0     0  0
 20 26  1  0     0  0
 21 27  1  0     0  0
 24 28  1  0     0  0
 26 27  1  0     0  0
 28 29  1  0     0  0
 29 30  1  0     0  0
M  END
> <standard_type>
pIC50

> <# Confs.>
25

> <canonical_smiles>
CCCCC1=NC(Cl)=C(CC(OC)=O)N1CC2=CC=C(NC(CCC(O)=O)=O)C=C2

> <standard_relation>
=

> <Publication_ID>
nan

> <predicted_activity_value>
5.0

> <actual_activity_value>
4.337242168318426

> <Compound>
23

> <standard_units>
nM

> hash
17748807188493933904

$$$$
23_
XXILIB    08252103513D 0   0.00000     0.00000

 30 31  0     1  0            999 V2000
   -3.5748    0.0265   -1.4596 Cl  0  0  0  0  0  1           0  0  0
    0.2063   -2.3958   -2.2827 O   0  0  0  0  0  2           0  0  0
    5.3537   10.0523   -0.0471 O   0  0  0  0  0  2           0  0  0
    5.2139    5.3768    1.5138 O   0  0  0  0  0  2           0  0  0
   -0.1927   -1.4488   -4.3441 O   0  0  0  0  0  2           0  0  0
    7.0219   10.0299    1.4979 O   0  0  0  0  0  2           0  0  0
    0.0000   -0.0000    0.0000 N   0  0  0  0  0  3           0  0  0
   -2.0822    0.0079    0.7623 N   0  0  0  0  0  3           0  0  0
    3.4961    5.3416   -0.0561 N   0  0  0  0  0  3           0  0  0
   -2.0956    0.0071   -0.6094 C   0  0  0  0  0  4           0  0  0
   -0.8139    0.0000    1.1146 C   0  0  0  0  0  4           0  0  0
   -0.8093   -0.0085   -1.1246 C   0  0  0  0  0  4           0  0  0
    3.0209    4.0165   -0.0152 C   0  0  0  0  0  4           0  0  0
    1.9910    1.3970   -0.0000 C   0  0  0  0  0  4           0  0  0
    1.9625    3.6692   -0.8604 C   0  0  0  0  0  4           0  0  0
    3.5692    3.0495    0.8334 C   0  0  0  0  0  4           0  0  0
    1.4527    2.3689   -0.8531 C   0  0  0  0  0  4           0  0  0
    3.0588    1.7482    0.8361 C   0  0  0  0  0  4           0  0  0
   -0.0496   -1.4279   -2.9865 C   0  0  0  0  0  4           0  0  0
    6.0239    9.4521    0.7829 C   0  0  0  0  0  4           0  0  0
    4.5169    5.9327    0.6670 C   0  0  0  0  0  4           0  0  0
   -0.0216   -2.7296   -4.9596 C   0  0  0  0  0  4           0  0  0
    1.4499    0.0000    0.0000 C   0  0  0  0  0  4           0  0  0
   -0.3297   -0.0006    2.5204 C   0  0  0  0  0  4           0  0  0
   -0.2528   -0.0150   -2.5008 C   0  0  0  0  0  4           0  0  0
    5.8340    8.0027    1.1299 C   0  0  0  0  0  4           0  0  0
    4.7077    7.3886    0.3185 C   0  0  0  0  0  4           0  0  0
   -0.1413   -1.4118    3.0685 C   0  0  0  0  0  4           0  0  0
   -1.4329   -2.2254    3.0624 C   0  0  0  0  0  4           0  0  0
   -1.2471   -3.6332    3.6087 C   0  0  0  0  0  4           0  0  0
  1 10  1  0     0  0
  2 19  2  0     0  0
  3 20  2  0     0  0
  4 21  2  0     0  0
  5 19  1  0     0  0
  5 22  1  0     0  0
  6 20  1  0     0  0
  7 11  1  0     0  0
  7 12  1  0     0  0
  7 23  1  0     0  0
  8 10  1  0     0  0
  8 11  2  0     0  0
  9 13  1  0     0  0
  9 21  1  0     0  0
 10 12  2  0     0  0
 11 24  1  0     0  0
 12 25  1  0     0  0
 13 15  2  0     0  0
 13 16  1  0     0  0
 14 17  2  0     0  0
 14 18  1  0     0  0
 14 23  1  0     0  0
 15 17  1  0     0  0
 16 18  2  0     0  0
 19 25  1  0     0  0
 20 26  1  0     0  0
 21 27  1  0     0  0
 24 28  1  0     0  0
 26 27  1  0     0  0
 28 29  1  0     0  0
 29 30  1  0     0  0
M  END
> <standard_type>
pIC50

> <# Confs.>
25

> <canonical_smiles>
CCCCC1=NC(Cl)=C(CC(OC)=O)N1CC2=CC=C(NC(CCC(O)=O)=O)C=C2

> <standard_relation>
=

> <Publication_ID>
nan

> <predicted_activity_value>
5.0

> <actual_activity_value>
4.337242168318426

> <Compound>
23

> <standard_units>
nM

> hash
17748807188493933904

$$$$
23_
XXILIB    08252103513D 0   0.00000     0.00000

 30 31  0     1  0            999 V2000
   -3.5748    0.0265   -1.4596 Cl  0  0  0  0  0  1           0  0  0
    0.1941    2.3706   -2.3099 O   0  0  0  0  0  2           0  0  0
    5.3890  -10.0386   -0.0093 O   0  0  0  0  0  2           0  0  0
    2.3404   -6.4899   -1.5678 O   0  0  0  0  0  2           0  0  0
   -0.2113    1.4000   -4.3592 O   0  0  0  0  0  2           0  0  0
    4.1584  -11.1391   -1.5729 O   0  0  0  0  0  2           0  0  0
    0.0000   -0.0000    0.0000 N   0  0  0  0  0  3           0  0  0
   -2.0822    0.0079    0.7623 N   0  0  0  0  0  3           0  0  0
    3.5683   -5.3136    0.0214 N   0  0  0  0  0  3           0  0  0
   -2.0956    0.0071   -0.6094 C   0  0  0  0  0  4           0  0  0
   -0.8139    0.0000    1.1146 C   0  0  0  0  0  4           0  0  0
   -0.8093   -0.0085   -1.1246 C   0  0  0  0  0  4           0  0  0
    3.0219   -4.0161   -0.0141 C   0  0  0  0  0  4           0  0  0
    1.9910   -1.3970    0.0000 C   0  0  0  0  0  4           0  0  0
    3.5549   -3.0524    0.8473 C   0  0  0  0  0  4           0  0  0
    1.9764   -3.6665   -0.8747 C   0  0  0  0  0  4           0  0  0
    3.0436   -1.7526    0.8531 C   0  0  0  0  0  4           0  0  0
    1.4690   -2.3640   -0.8689 C   0  0  0  0  0  4           0  0  0
   -0.0568    1.3933   -3.0026 C   0  0  0  0  0  4           0  0  0
    4.5003  -10.0423   -0.8511 C   0  0  0  0  0  4           0  0  0
    3.2263   -6.4326   -0.7170 C   0  0  0  0  0  4           0  0  0
   -0.0593    2.6768   -4.9878 C   0  0  0  0  0  4           0  0  0
    1.4499   -0.0000    0.0000 C   0  0  0  0  0  4           0  0  0
   -0.3297   -0.0006    2.5204 C   0  0  0  0  0  4           0  0  0
   -0.2528   -0.0150   -2.5008 C   0  0  0  0  0  4           0  0  0
    3.6638   -8.8434   -1.1974 C   0  0  0  0  0  4           0  0  0
    4.0666   -7.6369   -0.3691 C   0  0  0  0  0  4           0  0  0
   -0.1401    1.4101    3.0693 C   0  0  0  0  0  4           0  0  0
    0.3571    1.4207    4.5127 C   0  0  0  0  0  4           0  0  0
    0.5467    2.8269    5.0619 C   0  0  0  0  0  4           0  0  0
  1 10  1  0     0  0
  2 19  2  0     0  0
  3 20  2  0     0  0
  4 21  2  0     0  0
  5 19  1  0     0  0
  5 22  1  0     0  0
  6 20  1  0     0  0
  7 11  1  0     0  0
  7 12  1  0     0  0
  7 23  1  0     0  0
  8 10  1  0     0  0
  8 11  2  0     0  0
  9 13  1  0     0  0
  9 21  1  0     0  0
 10 12  2  0     0  0
 11 24  1  0     0  0
 12 25  1  0     0  0
 13 15  2  0     0  0
 13 16  1  0     0  0
 14 17  2  0     0  0
 14 18  1  0     0  0
 14 23  1  0     0  0
 15 17  1  0     0  0
 16 18  2  0     0  0
 19 25  1  0     0  0
 20 26  1  0     0  0
 21 27  1  0     0  0
 24 28  1  0     0  0
 26 27  1  0     0  0
 28 29  1  0     0  0
 29 30  1  0     0  0
M  END
> <standard_type>
pIC50

> <# Confs.>
25

> <canonical_smiles>
CCCCC1=NC(Cl)=C(CC(OC)=O)N1CC2=CC=C(NC(CCC(O)=O)=O)C=C2

> <standard_relation>
=

> <Publication_ID>
nan

> <predicted_activity_value>
5.0

> <actual_activity_value>
4.337242168318426

> <Compound>
23

> <standard_units>
nM

> hash
17748807188493933904

$$$$
23_
XXILIB    08252103513D 0   0.00000     0.00000

 30 31  0     1  0            999 V2000
   -3.5748    0.0265   -1.4596 Cl  0  0  0  0  0  1           0  0  0
   -0.7146   -2.4003   -2.6550 O   0  0  0  0  0  2           0  0  0
    5.3537  -10.0523    0.0471 O   0  0  0  0  0  2           0  0  0
    5.2139   -5.3768   -1.5138 O   0  0  0  0  0  2           0  0  0
    1.0043   -1.4449   -3.8544 O   0  0  0  0  0  2           0  0  0
    7.0219  -10.0299   -1.4979 O   0  0  0  0  0  2           0  0  0
    0.0000   -0.0000    0.0000 N   0  0  0  0  0  3           0  0  0
   -2.0822    0.0079    0.7623 N   0  0  0  0  0  3           0  0  0
    3.4961   -5.3416    0.0561 N   0  0  0  0  0  3           0  0  0
   -2.0956    0.0071   -0.6094 C   0  0  0  0  0  4           0  0  0
   -0.8139    0.0000    1.1146 C   0  0  0  0  0  4           0  0  0
   -0.8093   -0.0085   -1.1246 C   0  0  0  0  0  4           0  0  0
    3.0209   -4.0165    0.0152 C   0  0  0  0  0  4           0  0  0
    1.9910   -1.3970    0.0000 C   0  0  0  0  0  4           0  0  0
    1.9625   -3.6692    0.8604 C   0  0  0  0  0  4           0  0  0
    3.5692   -3.0495   -0.8334 C   0  0  0  0  0  4           0  0  0
    1.4527   -2.3689    0.8531 C   0  0  0  0  0  4           0  0  0
    3.0588   -1.7482   -0.8361 C   0  0  0  0  0  4           0  0  0
   -0.0496   -1.4279   -2.9865 C   0  0  0  0  0  4           0  0  0
    6.0239   -9.4521   -0.7829 C   0  0  0  0  0  4           0  0  0
    4.5169   -5.9327   -0.6670 C   0  0  0  0  0  4           0  0  0
    1.3278   -2.7273   -4.4017 C   0  0  0  0  0  4           0  0  0
    1.4499   -0.0000   -0.0000 C   0  0  0  0  0  4           0  0  0
   -0.3297   -0.0006    2.5204 C   0  0  0  0  0  4           0  0  0
   -0.2528   -0.0150   -2.5008 C   0  0  0  0  0  4           0  0  0
    5.8340   -8.0027   -1.1299 C   0  0  0  0  0  4           0  0  0
    4.7077   -7.3886   -0.3185 C   0  0  0  0  0  4           0  0  0
   -1.0844   -0.9983    3.3936 C   0  0  0  0  0  4           0  0  0
   -0.5947   -1.0068    4.8395 C   0  0  0  0  0  4           0  0  0
   -1.3462   -2.0012    5.7120 C   0  0  0  0  0  4           0  0  0
  1 10  1  0     0  0
  2 19  2  0     0  0
  3 20  2  0     0  0
  4 21  2  0     0  0
  5 19  1  0     0  0
  5 22  1  0     0  0
  6 20  1  0     0  0
  7 11  1  0     0  0
  7 12  1  0     0  0
  7 23  1  0     0  0
  8 10  1  0     0  0
  8 11  2  0     0  0
  9 13  1  0     0  0
  9 21  1  0     0  0
 10 12  2  0     0  0
 11 24  1  0     0  0
 12 25  1  0     0  0
 13 15  2  0     0  0
 13 16  1  0     0  0
 14 17  2  0     0  0
 14 18  1  0     0  0
 14 23  1  0     0  0
 15 17  1  0     0  0
 16 18  2  0     0  0
 19 25  1  0     0  0
 20 26  1  0     0  0
 21 27  1  0     0  0
 24 28  1  0     0  0
 26 27  1  0     0  0
 28 29  1  0     0  0
 29 30  1  0     0  0
M  END
> <standard_type>
pIC50

> <# Confs.>
25

> <canonical_smiles>
CCCCC1=NC(Cl)=C(CC(OC)=O)N1CC2=CC=C(NC(CCC(O)=O)=O)C=C2

> <standard_relation>
=

> <Publication_ID>
nan

> <predicted_activity_value>
5.0

> <actual_activity_value>
4.337242168318426

> <Compound>
23

> <standard_units>
nM

> hash
17748807188493933904

$$$$
23_
XXILIB    08252103513D 0   0.00000     0.00000

 30 31  0     1  0            999 V2000
   -3.5748    0.0265   -1.4596 Cl  0  0  0  0  0  1           0  0  0
   -0.7268    2.3661   -2.6823 O   0  0  0  0  0  2           0  0  0
    5.3537  -10.0523    0.0471 O   0  0  0  0  0  2           0  0  0
    5.2139   -5.3768   -1.5138 O   0  0  0  0  0  2           0  0  0
    0.9898    1.4038   -3.8794 O   0  0  0  0  0  2           0  0  0
    7.0219  -10.0299   -1.4979 O   0  0  0  0  0  2           0  0  0
    0.0000   -0.0000    0.0000 N   0  0  0  0  0  3           0  0  0
   -2.0822    0.0079    0.7623 N   0  0  0  0  0  3           0  0  0
    3.4961   -5.3416    0.0561 N   0  0  0  0  0  3           0  0  0
   -2.0956    0.0071   -0.6094 C   0  0  0  0  0  4           0  0  0
   -0.8139    0.0000    1.1146 C   0  0  0  0  0  4           0  0  0
   -0.8093   -0.0085   -1.1246 C   0  0  0  0  0  4           0  0  0
    3.0209   -4.0165    0.0152 C   0  0  0  0  0  4           0  0  0
    1.9910   -1.3970    0.0000 C   0  0  0  0  0  4           0  0  0
    1.9625   -3.6692    0.8604 C   0  0  0  0  0  4           0  0  0
    3.5692   -3.0495   -0.8334 C   0  0  0  0  0  4           0  0  0
    1.4527   -2.3689    0.8531 C   0  0  0  0  0  4           0  0  0
    3.0588   -1.7482   -0.8361 C   0  0  0  0  0  4           0  0  0
   -0.0568    1.3933   -3.0026 C   0  0  0  0  0  4           0  0  0
    6.0239   -9.4521   -0.7829 C   0  0  0  0  0  4           0  0  0
    4.5169   -5.9327   -0.6670 C   0  0  0  0  0  4           0  0  0
    1.2986    2.6791   -4.4511 C   0  0  0  0  0  4           0  0  0
    1.4499   -0.0000   -0.0000 C   0  0  0  0  0  4           0  0  0
   -0.3297   -0.0006    2.5204 C   0  0  0  0  0  4           0  0  0
   -0.2528   -0.0150   -2.5008 C   0  0  0  0  0  4           0  0  0
    5.8340   -8.0027   -1.1299 C   0  0  0  0  0  4           0  0  0
    4.7077   -7.3886   -0.3185 C   0  0  0  0  0  4           0  0  0
   -0.1401    1.4101    3.0693 C   0  0  0  0  0  4           0  0  0
    0.3571    1.4207    4.5127 C   0  0  0  0  0  4           0  0  0
    0.5467    2.8269    5.0619 C   0  0  0  0  0  4           0  0  0
  1 10  1  0     0  0
  2 19  2  0     0  0
  3 20  2  0     0  0
  4 21  2  0     0  0
  5 19  1  0     0  0
  5 22  1  0     0  0
  6 20  1  0     0  0
  7 11  1  0     0  0
  7 12  1  0     0  0
  7 23  1  0     0  0
  8 10  1  0     0  0
  8 11  2  0     0  0
  9 13  1  0     0  0
  9 21  1  0     0  0
 10 12  2  0     0  0
 11 24  1  0     0  0
 12 25  1  0     0  0
 13 15  2  0     0  0
 13 16  1  0     0  0
 14 17  2  0     0  0
 14 18  1  0     0  0
 14 23  1  0     0  0
 15 17  1  0     0  0
 16 18  2  0     0  0
 19 25  1  0     0  0
 20 26  1  0     0  0
 21 27  1  0     0  0
 24 28  1  0     0  0
 26 27  1  0     0  0
 28 29  1  0     0  0
 29 30  1  0     0  0
M  END
> <standard_type>
pIC50

> <# Confs.>
25

> <canonical_smiles>
CCCCC1=NC(Cl)=C(CC(OC)=O)N1CC2=CC=C(NC(CCC(O)=O)=O)C=C2

> <standard_relation>
=

> <Publication_ID>
nan

> <predicted_activity_value>
5.0

> <actual_activity_value>
4.337242168318426

> <Compound>
23

> <standard_units>
nM

> hash
17748807188493933904

$$$$
23_
XXILIB    08252103513D 0   0.00000     0.00000

 30 31  0     1  0            999 V2000
   -3.5748    0.0265   -1.4596 Cl  0  0  0  0  0  1           0  0  0
   -0.3132    2.4159   -2.3810 O   0  0  0  0  0  2           0  0  0
    5.4447   -9.9975    0.2260 O   0  0  0  0  0  2           0  0  0
    5.2139   -5.3768   -1.5138 O   0  0  0  0  0  2           0  0  0
    0.4495    1.3400   -4.2695 O   0  0  0  0  0  2           0  0  0
    7.6293   -9.6662   -0.3112 O   0  0  0  0  0  2           0  0  0
    0.0000   -0.0000    0.0000 N   0  0  0  0  0  3           0  0  0
   -2.0822    0.0079    0.7623 N   0  0  0  0  0  3           0  0  0
    3.4961   -5.3416    0.0561 N   0  0  0  0  0  3           0  0  0
   -2.0956    0.0071   -0.6094 C   0  0  0  0  0  4           0  0  0
   -0.8139    0.0000    1.1146 C   0  0  0  0  0  4           0  0  0
   -0.8093   -0.0085   -1.1246 C   0  0  0  0  0  4           0  0  0
    3.0209   -4.0165    0.0152 C   0  0  0  0  0  4           0  0  0
    1.9910   -1.3970    0.0000 C   0  0  0  0  0  4           0  0  0
    1.9625   -3.6692    0.8604 C   0  0  0  0  0  4           0  0  0
    3.5692   -3.0495   -0.8334 C   0  0  0  0  0  4           0  0  0
    1.4527   -2.3689    0.8531 C   0  0  0  0  0  4           0  0  0
    3.0588   -1.7482   -0.8361 C   0  0  0  0  0  4           0  0  0
   -0.0568    1.3933   -3.0026 C   0  0  0  0  0  4           0  0  0
    6.3446   -9.2592   -0.1529 C   0  0  0  0  0  4           0  0  0
    4.5169   -5.9327   -0.6670 C   0  0  0  0  0  4           0  0  0
    0.6869    2.6080   -4.8893 C   0  0  0  0  0  4           0  0  0
    1.4499   -0.0000   -0.0000 C   0  0  0  0  0  4           0  0  0
   -0.3297   -0.0006    2.5204 C   0  0  0  0  0  4           0  0  0
   -0.2528   -0.0150   -2.5008 C   0  0  0  0  0  4           0  0  0
    6.1546   -7.8099   -0.4998 C   0  0  0  0  0  4           0  0  0
    4.7077   -7.3886   -0.3185 C   0  0  0  0  0  4           0  0  0
   -1.0836    0.9972    3.3942 C   0  0  0  0  0  4           0  0  0
   -0.9512    2.4349    2.8984 C   0  0  0  0  0  4           0  0  0
    0.4914    2.9172    2.8631 C   0  0  0  0  0  4           0  0  0
  1 10  1  0     0  0
  2 19  2  0     0  0
  3 20  2  0     0  0
  4 21  2  0     0  0
  5 19  1  0     0  0
  5 22  1  0     0  0
  6 20  1  0     0  0
  7 11  1  0     0  0
  7 12  1  0     0  0
  7 23  1  0     0  0
  8 10  1  0     0  0
  8 11  2  0     0  0
  9 13  1  0     0  0
  9 21  1  0     0  0
 10 12  2  0     0  0
 11 24  1  0     0  0
 12 25  1  0     0  0
 13 15  2  0     0  0
 13 16  1  0     0  0
 14 17  2  0     0  0
 14 18  1  0     0  0
 14 23  1  0     0  0
 15 17  1  0     0  0
 16 18  2  0     0  0
 19 25  1  0     0  0
 20 26  1  0     0  0
 21 27  1  0     0  0
 24 28  1  0     0  0
 26 27  1  0     0  0
 28 29  1  0     0  0
 29 30  1  0     0  0
M  END
> <standard_type>
pIC50

> <# Confs.>
25

> <canonical_smiles>
CCCCC1=NC(Cl)=C(CC(OC)=O)N1CC2=CC=C(NC(CCC(O)=O)=O)C=C2

> <standard_relation>
=

> <Publication_ID>
nan

> <predicted_activity_value>
5.0

> <actual_activity_value>
4.337242168318426

> <Compound>
23

> <standard_units>
nM

> hash
17748807188493933904

$$$$
23_
XXILIB    08252103513D 0   0.00000     0.00000

 30 31  0     1  0            999 V2000
   -3.5748    0.0265   -1.4596 Cl  0  0  0  0  0  1           0  0  0
    0.1941    2.3706   -2.3099 O   0  0  0  0  0  2           0  0  0
    5.3890  -10.0386   -0.0093 O   0  0  0  0  0  2           0  0  0
    2.3404   -6.4899   -1.5678 O   0  0  0  0  0  2           0  0  0
   -0.2113    1.4000   -4.3592 O   0  0  0  0  0  2           0  0  0
    4.1584  -11.1391   -1.5729 O   0  0  0  0  0  2           0  0  0
    0.0000   -0.0000    0.0000 N   0  0  0  0  0  3           0  0  0
   -2.0822    0.0079    0.7623 N   0  0  0  0  0  3           0  0  0
    3.5683   -5.3136    0.0214 N   0  0  0  0  0  3           0  0  0
   -2.0956    0.0071   -0.6094 C   0  0  0  0  0  4           0  0  0
   -0.8139    0.0000    1.1146 C   0  0  0  0  0  4           0  0  0
   -0.8093   -0.0085   -1.1246 C   0  0  0  0  0  4           0  0  0
    3.0219   -4.0161   -0.0141 C   0  0  0  0  0  4           0  0  0
    1.9910   -1.3970    0.0000 C   0  0  0  0  0  4           0  0  0
    3.5549   -3.0524    0.8473 C   0  0  0  0  0  4           0  0  0
    1.9764   -3.6665   -0.8747 C   0  0  0  0  0  4           0  0  0
    3.0436   -1.7526    0.8531 C   0  0  0  0  0  4           0  0  0
    1.4690   -2.3640   -0.8689 C   0  0  0  0  0  4           0  0  0
   -0.0568    1.3933   -3.0026 C   0  0  0  0  0  4           0  0  0
    4.5003  -10.0423   -0.8511 C   0  0  0  0  0  4           0  0  0
    3.2263   -6.4326   -0.7170 C   0  0  0  0  0  4           0  0  0
   -0.0593    2.6768   -4.9878 C   0  0  0  0  0  4           0  0  0
    1.4499   -0.0000    0.0000 C   0  0  0  0  0  4           0  0  0
   -0.3297   -0.0006    2.5204 C   0  0  0  0  0  4           0  0  0
   -0.2528   -0.0150   -2.5008 C   0  0  0  0  0  4           0  0  0
    3.6638   -8.8434   -1.1974 C   0  0  0  0  0  4           0  0  0
    4.0666   -7.6369   -0.3691 C   0  0  0  0  0  4           0  0  0
   -0.1413   -1.4118    3.0685 C   0  0  0  0  0  4           0  0  0
    0.3559   -1.4236    4.5118 C   0  0  0  0  0  4           0  0  0
    0.5445   -2.8302    5.0603 C   0  0  0  0  0  4           0  0  0
  1 10  1  0     0  0
  2 19  2  0     0  0
  3 20  2  0     0  0
  4 21  2  0     0  0
  5 19  1  0     0  0
  5 22  1  0     0  0
  6 20  1  0     0  0
  7 11  1  0     0  0
  7 12  1  0     0  0
  7 23  1  0     0  0
  8 10  1  0     0  0
  8 11  2  0     0  0
  9 13  1  0     0  0
  9 21  1  0     0  0
 10 12  2  0     0  0
 11 24  1  0     0  0
 12 25  1  0     0  0
 13 15  2  0     0  0
 13 16  1  0     0  0
 14 17  2  0     0  0
 14 18  1  0     0  0
 14 23  1  0     0  0
 15 17  1  0     0  0
 16 18  2  0     0  0
 19 25  1  0     0  0
 20 26  1  0     0  0
 21 27  1  0     0  0
 24 28  1  0     0  0
 26 27  1  0     0  0
 28 29  1  0     0  0
 29 30  1  0     0  0
M  END
> <standard_type>
pIC50

> <# Confs.>
25

> <canonical_smiles>
CCCCC1=NC(Cl)=C(CC(OC)=O)N1CC2=CC=C(NC(CCC(O)=O)=O)C=C2

> <standard_relation>
=

> <Publication_ID>
nan

> <predicted_activity_value>
5.0

> <actual_activity_value>
4.337242168318426

> <Compound>
23

> <standard_units>
nM

> hash
17748807188493933904

$$$$
23_
XXILIB    08252103513D 0   0.00000     0.00000

 30 31  0     1  0            999 V2000
   -3.5748    0.0265   -1.4596 Cl  0  0  0  0  0  1           0  0  0
    0.1941    2.3706   -2.3099 O   0  0  0  0  0  2           0  0  0
    5.3890  -10.0386   -0.0093 O   0  0  0  0  0  2           0  0  0
    2.3404   -6.4899   -1.5678 O   0  0  0  0  0  2           0  0  0
   -0.2113    1.4000   -4.3592 O   0  0  0  0  0  2           0  0  0
    4.1584  -11.1391   -1.5729 O   0  0  0  0  0  2           0  0  0
    0.0000   -0.0000    0.0000 N   0  0  0  0  0  3           0  0  0
   -2.0822    0.0079    0.7623 N   0  0  0  0  0  3           0  0  0
    3.5683   -5.3136    0.0214 N   0  0  0  0  0  3           0  0  0
   -2.0956    0.0071   -0.6094 C   0  0  0  0  0  4           0  0  0
   -0.8139    0.0000    1.1146 C   0  0  0  0  0  4           0  0  0
   -0.8093   -0.0085   -1.1246 C   0  0  0  0  0  4           0  0  0
    3.0219   -4.0161   -0.0141 C   0  0  0  0  0  4           0  0  0
    1.9910   -1.3970    0.0000 C   0  0  0  0  0  4           0  0  0
    3.5549   -3.0524    0.8473 C   0  0  0  0  0  4           0  0  0
    1.9764   -3.6665   -0.8747 C   0  0  0  0  0  4           0  0  0
    3.0436   -1.7526    0.8531 C   0  0  0  0  0  4           0  0  0
    1.4690   -2.3640   -0.8689 C   0  0  0  0  0  4           0  0  0
   -0.0568    1.3933   -3.0026 C   0  0  0  0  0  4           0  0  0
    4.5003  -10.0423   -0.8511 C   0  0  0  0  0  4           0  0  0
    3.2263   -6.4326   -0.7170 C   0  0  0  0  0  4           0  0  0
   -0.0593    2.6768   -4.9878 C   0  0  0  0  0  4           0  0  0
    1.4499   -0.0000    0.0000 C   0  0  0  0  0  4           0  0  0
   -0.3297   -0.0006    2.5204 C   0  0  0  0  0  4           0  0  0
   -0.2528   -0.0150   -2.5008 C   0  0  0  0  0  4           0  0  0
    3.6638   -8.8434   -1.1974 C   0  0  0  0  0  4           0  0  0
    4.0666   -7.6369   -0.3691 C   0  0  0  0  0  4           0  0  0
   -0.1401    1.4101    3.0693 C   0  0  0  0  0  4           0  0  0
   -1.4312    2.2248    3.0636 C   0  0  0  0  0  4           0  0  0
   -1.2442    3.6321    3.6108 C   0  0  0  0  0  4           0  0  0
  1 10  1  0     0  0
  2 19  2  0     0  0
  3 20  2  0     0  0
  4 21  2  0     0  0
  5 19  1  0     0  0
  5 22  1  0     0  0
  6 20  1  0     0  0
  7 11  1  0     0  0
  7 12  1  0     0  0
  7 23  1  0     0  0
  8 10  1  0     0  0
  8 11  2  0     0  0
  9 13  1  0     0  0
  9 21  1  0     0  0
 10 12  2  0     0  0
 11 24  1  0     0  0
 12 25  1  0     0  0
 13 15  2  0     0  0
 13 16  1  0     0  0
 14 17  2  0     0  0
 14 18  1  0     0  0
 14 23  1  0     0  0
 15 17  1  0     0  0
 16 18  2  0     0  0
 19 25  1  0     0  0
 20 26  1  0     0  0
 21 27  1  0     0  0
 24 28  1  0     0  0
 26 27  1  0     0  0
 28 29  1  0     0  0
 29 30  1  0     0  0
M  END
> <standard_type>
pIC50

> <# Confs.>
25

> <canonical_smiles>
CCCCC1=NC(Cl)=C(CC(OC)=O)N1CC2=CC=C(NC(CCC(O)=O)=O)C=C2

> <standard_relation>
=

> <Publication_ID>
nan

> <predicted_activity_value>
5.0

> <actual_activity_value>
4.337242168318426

> <Compound>
23

> <standard_units>
nM

> hash
17748807188493933904

$$$$
23_
XXILIB    08252103513D 0   0.00000     0.00000

 30 31  0     1  0            999 V2000
   -3.5748    0.0265   -1.4596 Cl  0  0  0  0  0  1           0  0  0
    0.1941    2.3706   -2.3099 O   0  0  0  0  0  2           0  0  0
    5.3537    7.1414    7.0747 O   0  0  0  0  0  2           0  0  0
    5.2139    2.7316    4.8724 O   0  0  0  0  0  2           0  0  0
   -0.2113    1.4000   -4.3592 O   0  0  0  0  0  2           0  0  0
    7.0219    6.0330    8.1514 O   0  0  0  0  0  2           0  0  0
    0.0000   -0.0000    0.0000 N   0  0  0  0  0  3           0  0  0
   -2.0822    0.0079    0.7623 N   0  0  0  0  0  3           0  0  0
    3.4961    3.8168    3.7374 N   0  0  0  0  0  3           0  0  0
   -2.0956    0.0071   -0.6094 C   0  0  0  0  0  4           0  0  0
   -0.8139    0.0000    1.1146 C   0  0  0  0  0  4           0  0  0
   -0.8093   -0.0085   -1.1246 C   0  0  0  0  0  4           0  0  0
    3.0209    2.8509    2.8293 C   0  0  0  0  0  4           0  0  0
    1.9910    0.9879    0.9879 C   0  0  0  0  0  4           0  0  0
    1.9625    3.2029    1.9862 C   0  0  0  0  0  4           0  0  0
    3.5692    1.5670    2.7457 C   0  0  0  0  0  4           0  0  0
    1.4527    2.2783    1.0719 C   0  0  0  0  0  4           0  0  0
    3.0588    0.6449    1.8274 C   0  0  0  0  0  4           0  0  0
   -0.0568    1.3933   -3.0026 C   0  0  0  0  0  4           0  0  0
    6.0239    6.1300    7.2372 C   0  0  0  0  0  4           0  0  0
    4.5169    3.7234    4.6667 C   0  0  0  0  0  4           0  0  0
   -0.0593    2.6768   -4.9878 C   0  0  0  0  0  4           0  0  0
    1.4499    0.0000    0.0000 C   0  0  0  0  0  4           0  0  0
   -0.3297   -0.0006    2.5204 C   0  0  0  0  0  4           0  0  0
   -0.2528   -0.0150   -2.5008 C   0  0  0  0  0  4           0  0  0
    5.8340    4.8598    6.4577 C   0  0  0  0  0  4           0  0  0
    4.7077    4.9993    5.4497 C   0  0  0  0  0  4           0  0  0
   -1.0844   -0.9983    3.3936 C   0  0  0  0  0  4           0  0  0
   -0.5947   -1.0068    4.8395 C   0  0  0  0  0  4           0  0  0
   -1.3462   -2.0012    5.7120 C   0  0  0  0  0  4           0  0  0
  1 10  1  0     0  0
  2 19  2  0     0  0
  3 20  2  0     0  0
  4 21  2  0     0  0
  5 19  1  0     0  0
  5 22  1  0     0  0
  6 20  1  0     0  0
  7 11  1  0     0  0
  7 12  1  0     0  0
  7 23  1  0     0  0
  8 10  1  0     0  0
  8 11  2  0     0  0
  9 13  1  0     0  0
  9 21  1  0     0  0
 10 12  2  0     0  0
 11 24  1  0     0  0
 12 25  1  0     0  0
 13 15  2  0     0  0
 13 16  1  0     0  0
 14 17  2  0     0  0
 14 18  1  0     0  0
 14 23  1  0     0  0
 15 17  1  0     0  0
 16 18  2  0     0  0
 19 25  1  0     0  0
 20 26  1  0     0  0
 21 27  1  0     0  0
 24 28  1  0     0  0
 26 27  1  0     0  0
 28 29  1  0     0  0
 29 30  1  0     0  0
M  END
> <standard_type>
pIC50

> <# Confs.>
25

> <canonical_smiles>
CCCCC1=NC(Cl)=C(CC(OC)=O)N1CC2=CC=C(NC(CCC(O)=O)=O)C=C2

> <standard_relation>
=

> <Publication_ID>
nan

> <predicted_activity_value>
5.0

> <actual_activity_value>
4.337242168318426

> <Compound>
23

> <standard_units>
nM

> hash
17748807188493933904

$$$$
23_
XXILIB    08252103513D 0   0.00000     0.00000

 30 31  0     1  0            999 V2000
   -3.5748    0.0265   -1.4596 Cl  0  0  0  0  0  1           0  0  0
    0.1941    2.3706   -2.3099 O   0  0  0  0  0  2           0  0  0
    5.3890  -10.0386   -0.0093 O   0  0  0  0  0  2           0  0  0
    2.3404   -6.4899   -1.5678 O   0  0  0  0  0  2           0  0  0
   -0.2113    1.4000   -4.3592 O   0  0  0  0  0  2           0  0  0
    4.1584  -11.1391   -1.5729 O   0  0  0  0  0  2           0  0  0
    0.0000   -0.0000    0.0000 N   0  0  0  0  0  3           0  0  0
   -2.0822    0.0079    0.7623 N   0  0  0  0  0  3           0  0  0
    3.5683   -5.3136    0.0214 N   0  0  0  0  0  3           0  0  0
   -2.0956    0.0071   -0.6094 C   0  0  0  0  0  4           0  0  0
   -0.8139    0.0000    1.1146 C   0  0  0  0  0  4           0  0  0
   -0.8093   -0.0085   -1.1246 C   0  0  0  0  0  4           0  0  0
    3.0219   -4.0161   -0.0141 C   0  0  0  0  0  4           0  0  0
    1.9910   -1.3970    0.0000 C   0  0  0  0  0  4           0  0  0
    3.5549   -3.0524    0.8473 C   0  0  0  0  0  4           0  0  0
    1.9764   -3.6665   -0.8747 C   0  0  0  0  0  4           0  0  0
    3.0436   -1.7526    0.8531 C   0  0  0  0  0  4           0  0  0
    1.4690   -2.3640   -0.8689 C   0  0  0  0  0  4           0  0  0
   -0.0568    1.3933   -3.0026 C   0  0  0  0  0  4           0  0  0
    4.5003  -10.0423   -0.8511 C   0  0  0  0  0  4           0  0  0
    3.2263   -6.4326   -0.7170 C   0  0  0  0  0  4           0  0  0
   -0.0593    2.6768   -4.9878 C   0  0  0  0  0  4           0  0  0
    1.4499   -0.0000    0.0000 C   0  0  0  0  0  4           0  0  0
   -0.3297   -0.0006    2.5204 C   0  0  0  0  0  4           0  0  0
   -0.2528   -0.0150   -2.5008 C   0  0  0  0  0  4           0  0  0
    3.6638   -8.8434   -1.1974 C   0  0  0  0  0  4           0  0  0
    4.0666   -7.6369   -0.3691 C   0  0  0  0  0  4           0  0  0
   -1.4747   -0.0004    3.5285 C   0  0  0  0  0  4           0  0  0
   -0.9881   -0.0010    4.9754 C   0  0  0  0  0  4           0  0  0
   -2.1287   -0.0009    5.9824 C   0  0  0  0  0  4           0  0  0
  1 10  1  0     0  0
  2 19  2  0     0  0
  3 20  2  0     0  0
  4 21  2  0     0  0
  5 19  1  0     0  0
  5 22  1  0     0  0
  6 20  1  0     0  0
  7 11  1  0     0  0
  7 12  1  0     0  0
  7 23  1  0     0  0
  8 10  1  0     0  0
  8 11  2  0     0  0
  9 13  1  0     0  0
  9 21  1  0     0  0
 10 12  2  0     0  0
 11 24  1  0     0  0
 12 25  1  0     0  0
 13 15  2  0     0  0
 13 16  1  0     0  0
 14 17  2  0     0  0
 14 18  1  0     0  0
 14 23  1  0     0  0
 15 17  1  0     0  0
 16 18  2  0     0  0
 19 25  1  0     0  0
 20 26  1  0     0  0
 21 27  1  0     0  0
 24 28  1  0     0  0
 26 27  1  0     0  0
 28 29  1  0     0  0
 29 30  1  0     0  0
M  END
> <standard_type>
pIC50

> <# Confs.>
25

> <canonical_smiles>
CCCCC1=NC(Cl)=C(CC(OC)=O)N1CC2=CC=C(NC(CCC(O)=O)=O)C=C2

> <standard_relation>
=

> <Publication_ID>
nan

> <predicted_activity_value>
5.0

> <actual_activity_value>
4.337242168318426

> <Compound>
23

> <standard_units>
nM

> hash
17748807188493933904

$$$$
23_
XXILIB    08252103513D 0   0.00000     0.00000

 30 31  0     1  0            999 V2000
   -3.5748    0.0265   -1.4596 Cl  0  0  0  0  0  1           0  0  0
   -0.3007   -2.4446   -2.3532 O   0  0  0  0  0  2           0  0  0
    5.3890   10.0386    0.0093 O   0  0  0  0  0  2           0  0  0
    2.3404    6.4899    1.5678 O   0  0  0  0  0  2           0  0  0
    0.4671   -1.3863   -4.2496 O   0  0  0  0  0  2           0  0  0
    4.1584   11.1391    1.5729 O   0  0  0  0  0  2           0  0  0
    0.0000   -0.0000    0.0000 N   0  0  0  0  0  3           0  0  0
   -2.0822    0.0079    0.7623 N   0  0  0  0  0  3           0  0  0
    3.5683    5.3136   -0.0214 N   0  0  0  0  0  3           0  0  0
   -2.0956    0.0071   -0.6094 C   0  0  0  0  0  4           0  0  0
   -0.8139    0.0000    1.1146 C   0  0  0  0  0  4           0  0  0
   -0.8093   -0.0085   -1.1246 C   0  0  0  0  0  4           0  0  0
    3.0219    4.0161    0.0141 C   0  0  0  0  0  4           0  0  0
    1.9910    1.3970    0.0000 C   0  0  0  0  0  4           0  0  0
    3.5549    3.0524   -0.8473 C   0  0  0  0  0  4           0  0  0
    1.9764    3.6665    0.8747 C   0  0  0  0  0  4           0  0  0
    3.0436    1.7526   -0.8531 C   0  0  0  0  0  4           0  0  0
    1.4690    2.3640    0.8689 C   0  0  0  0  0  4           0  0  0
   -0.0496   -1.4279   -2.9865 C   0  0  0  0  0  4           0  0  0
    4.5003   10.0423    0.8511 C   0  0  0  0  0  4           0  0  0
    3.2263    6.4326    0.7170 C   0  0  0  0  0  4           0  0  0
    0.7230   -2.6601   -4.8501 C   0  0  0  0  0  4           0  0  0
    1.4499    0.0000   -0.0000 C   0  0  0  0  0  4           0  0  0
   -0.3297   -0.0006    2.5204 C   0  0  0  0  0  4           0  0  0
   -0.2528   -0.0150   -2.5008 C   0  0  0  0  0  4           0  0  0
    3.6638    8.8434    1.1974 C   0  0  0  0  0  4           0  0  0
    4.0666    7.6369    0.3691 C   0  0  0  0  0  4           0  0  0
   -0.1413   -1.4118    3.0685 C   0  0  0  0  0  4           0  0  0
    0.3559   -1.4236    4.5118 C   0  0  0  0  0  4           0  0  0
    1.6983   -0.7275    4.6800 C   0  0  0  0  0  4           0  0  0
  1 10  1  0     0  0
  2 19  2  0     0  0
  3 20  2  0     0  0
  4 21  2  0     0  0
  5 19  1  0     0  0
  5 22  1  0     0  0
  6 20  1  0     0  0
  7 11  1  0     0  0
  7 12  1  0     0  0
  7 23  1  0     0  0
  8 10  1  0     0  0
  8 11  2  0     0  0
  9 13  1  0     0  0
  9 21  1  0     0  0
 10 12  2  0     0  0
 11 24  1  0     0  0
 12 25  1  0     0  0
 13 15  2  0     0  0
 13 16  1  0     0  0
 14 17  2  0     0  0
 14 18  1  0     0  0
 14 23  1  0     0  0
 15 17  1  0     0  0
 16 18  2  0     0  0
 19 25  1  0     0  0
 20 26  1  0     0  0
 21 27  1  0     0  0
 24 28  1  0     0  0
 26 27  1  0     0  0
 28 29  1  0     0  0
 29 30  1  0     0  0
M  END
> <standard_type>
pIC50

> <# Confs.>
25

> <canonical_smiles>
CCCCC1=NC(Cl)=C(CC(OC)=O)N1CC2=CC=C(NC(CCC(O)=O)=O)C=C2

> <standard_relation>
=

> <Publication_ID>
nan

> <predicted_activity_value>
5.0

> <actual_activity_value>
4.337242168318426

> <Compound>
23

> <standard_units>
nM

> hash
17748807188493933904

$$$$
23_
XXILIB    08252103513D 0   0.00000     0.00000

 30 31  0     1  0            999 V2000
   -3.5748    0.0265   -1.4596 Cl  0  0  0  0  0  1           0  0  0
   -0.7268    2.3661   -2.6823 O   0  0  0  0  0  2           0  0  0
    5.3890   10.0386    0.0093 O   0  0  0  0  0  2           0  0  0
    2.3404    6.4899    1.5678 O   0  0  0  0  0  2           0  0  0
    0.9898    1.4038   -3.8794 O   0  0  0  0  0  2           0  0  0
    4.1584   11.1391    1.5729 O   0  0  0  0  0  2           0  0  0
    0.0000   -0.0000    0.0000 N   0  0  0  0  0  3           0  0  0
   -2.0822    0.0079    0.7623 N   0  0  0  0  0  3           0  0  0
    3.5683    5.3136   -0.0214 N   0  0  0  0  0  3           0  0  0
   -2.0956    0.0071   -0.6094 C   0  0  0  0  0  4           0  0  0
   -0.8139    0.0000    1.1146 C   0  0  0  0  0  4           0  0  0
   -0.8093   -0.0085   -1.1246 C   0  0  0  0  0  4           0  0  0
    3.0219    4.0161    0.0141 C   0  0  0  0  0  4           0  0  0
    1.9910    1.3970    0.0000 C   0  0  0  0  0  4           0  0  0
    3.5549    3.0524   -0.8473 C   0  0  0  0  0  4           0  0  0
    1.9764    3.6665    0.8747 C   0  0  0  0  0  4           0  0  0
    3.0436    1.7526   -0.8531 C   0  0  0  0  0  4           0  0  0
    1.4690    2.3640    0.8689 C   0  0  0  0  0  4           0  0  0
   -0.0568    1.3933   -3.0026 C   0  0  0  0  0  4           0  0  0
    4.5003   10.0423    0.8511 C   0  0  0  0  0  4           0  0  0
    3.2263    6.4326    0.7170 C   0  0  0  0  0  4           0  0  0
    1.2986    2.6791   -4.4511 C   0  0  0  0  0  4           0  0  0
    1.4499    0.0000   -0.0000 C   0  0  0  0  0  4           0  0  0
   -0.3297   -0.0006    2.5204 C   0  0  0  0  0  4           0  0  0
   -0.2528   -0.0150   -2.5008 C   0  0  0  0  0  4           0  0  0
    3.6638    8.8434    1.1974 C   0  0  0  0  0  4           0  0  0
    4.0666    7.6369    0.3691 C   0  0  0  0  0  4           0  0  0
   -1.0836    0.9972    3.3942 C   0  0  0  0  0  4           0  0  0
   -0.5939    1.0045    4.8401 C   0  0  0  0  0  4           0  0  0
   -1.3447    1.9990    5.7131 C   0  0  0  0  0  4           0  0  0
  1 10  1  0     0  0
  2 19  2  0     0  0
  3 20  2  0     0  0
  4 21  2  0     0  0
  5 19  1  0     0  0
  5 22  1  0     0  0
  6 20  1  0     0  0
  7 11  1  0     0  0
  7 12  1  0     0  0
  7 23  1  0     0  0
  8 10  1  0     0  0
  8 11  2  0     0  0
  9 13  1  0     0  0
  9 21  1  0     0  0
 10 12  2  0     0  0
 11 24  1  0     0  0
 12 25  1  0     0  0
 13 15  2  0     0  0
 13 16  1  0     0  0
 14 17  2  0     0  0
 14 18  1  0     0  0
 14 23  1  0     0  0
 15 17  1  0     0  0
 16 18  2  0     0  0
 19 25  1  0     0  0
 20 26  1  0     0  0
 21 27  1  0     0  0
 24 28  1  0     0  0
 26 27  1  0     0  0
 28 29  1  0     0  0
 29 30  1  0     0  0
M  END
> <standard_type>
pIC50

> <# Confs.>
25

> <canonical_smiles>
CCCCC1=NC(Cl)=C(CC(OC)=O)N1CC2=CC=C(NC(CCC(O)=O)=O)C=C2

> <standard_relation>
=

> <Publication_ID>
nan

> <predicted_activity_value>
5.0

> <actual_activity_value>
4.337242168318426

> <Compound>
23

> <standard_units>
nM

> hash
17748807188493933904

$$$$
23_
XXILIB    08252103513D 0   0.00000     0.00000

 30 31  0     1  0            999 V2000
   -3.5748    0.0265   -1.4596 Cl  0  0  0  0  0  1           0  0  0
    0.1941    2.3706   -2.3099 O   0  0  0  0  0  2           0  0  0
    5.3890  -10.0386   -0.0093 O   0  0  0  0  0  2           0  0  0
    2.3404   -6.4899   -1.5678 O   0  0  0  0  0  2           0  0  0
   -0.2113    1.4000   -4.3592 O   0  0  0  0  0  2           0  0  0
    4.1584  -11.1391   -1.5729 O   0  0  0  0  0  2           0  0  0
    0.0000   -0.0000    0.0000 N   0  0  0  0  0  3           0  0  0
   -2.0822    0.0079    0.7623 N   0  0  0  0  0  3           0  0  0
    3.5683   -5.3136    0.0214 N   0  0  0  0  0  3           0  0  0
   -2.0956    0.0071   -0.6094 C   0  0  0  0  0  4           0  0  0
   -0.8139    0.0000    1.1146 C   0  0  0  0  0  4           0  0  0
   -0.8093   -0.0085   -1.1246 C   0  0  0  0  0  4           0  0  0
    3.0219   -4.0161   -0.0141 C   0  0  0  0  0  4           0  0  0
    1.9910   -1.3970    0.0000 C   0  0  0  0  0  4           0  0  0
    3.5549   -3.0524    0.8473 C   0  0  0  0  0  4           0  0  0
    1.9764   -3.6665   -0.8747 C   0  0  0  0  0  4           0  0  0
    3.0436   -1.7526    0.8531 C   0  0  0  0  0  4           0  0  0
    1.4690   -2.3640   -0.8689 C   0  0  0  0  0  4           0  0  0
   -0.0568    1.3933   -3.0026 C   0  0  0  0  0  4           0  0  0
    4.5003  -10.0423   -0.8511 C   0  0  0  0  0  4           0  0  0
    3.2263   -6.4326   -0.7170 C   0  0  0  0  0  4           0  0  0
   -0.0593    2.6768   -4.9878 C   0  0  0  0  0  4           0  0  0
    1.4499   -0.0000    0.0000 C   0  0  0  0  0  4           0  0  0
   -0.3297   -0.0006    2.5204 C   0  0  0  0  0  4           0  0  0
   -0.2528   -0.0150   -2.5008 C   0  0  0  0  0  4           0  0  0
    3.6638   -8.8434   -1.1974 C   0  0  0  0  0  4           0  0  0
    4.0666   -7.6369   -0.3691 C   0  0  0  0  0  4           0  0  0
   -0.1413   -1.4118    3.0685 C   0  0  0  0  0  4           0  0  0
   -1.4329   -2.2254    3.0624 C   0  0  0  0  0  4           0  0  0
   -1.2471   -3.6332    3.6087 C   0  0  0  0  0  4           0  0  0
  1 10  1  0     0  0
  2 19  2  0     0  0
  3 20  2  0     0  0
  4 21  2  0     0  0
  5 19  1  0     0  0
  5 22  1  0     0  0
  6 20  1  0     0  0
  7 11  1  0     0  0
  7 12  1  0     0  0
  7 23  1  0     0  0
  8 10  1  0     0  0
  8 11  2  0     0  0
  9 13  1  0     0  0
  9 21  1  0     0  0
 10 12  2  0     0  0
 11 24  1  0     0  0
 12 25  1  0     0  0
 13 15  2  0     0  0
 13 16  1  0     0  0
 14 17  2  0     0  0
 14 18  1  0     0  0
 14 23  1  0     0  0
 15 17  1  0     0  0
 16 18  2  0     0  0
 19 25  1  0     0  0
 20 26  1  0     0  0
 21 27  1  0     0  0
 24 28  1  0     0  0
 26 27  1  0     0  0
 28 29  1  0     0  0
 29 30  1  0     0  0
M  END
> <standard_type>
pIC50

> <# Confs.>
25

> <canonical_smiles>
CCCCC1=NC(Cl)=C(CC(OC)=O)N1CC2=CC=C(NC(CCC(O)=O)=O)C=C2

> <standard_relation>
=

> <Publication_ID>
nan

> <predicted_activity_value>
5.0

> <actual_activity_value>
4.337242168318426

> <Compound>
23

> <standard_units>
nM

> hash
17748807188493933904

$$$$
23_
XXILIB    08252103513D 0   0.00000     0.00000

 30 31  0     1  0            999 V2000
   -3.5748    0.0265   -1.4596 Cl  0  0  0  0  0  1           0  0  0
    0.2063   -2.3958   -2.2827 O   0  0  0  0  0  2           0  0  0
    5.3078   10.0700    0.0268 O   0  0  0  0  0  2           0  0  0
    3.7164    5.9569   -2.1790 O   0  0  0  0  0  2           0  0  0
   -0.1927   -1.4488   -4.3441 O   0  0  0  0  0  2           0  0  0
    5.5057   10.6172   -2.1714 O   0  0  0  0  0  2           0  0  0
    0.0000   -0.0000    0.0000 N   0  0  0  0  0  3           0  0  0
   -2.0822    0.0079    0.7623 N   0  0  0  0  0  3           0  0  0
    3.4931    5.3428    0.0548 N   0  0  0  0  0  3           0  0  0
   -2.0956    0.0071   -0.6094 C   0  0  0  0  0  4           0  0  0
   -0.8139    0.0000    1.1146 C   0  0  0  0  0  4           0  0  0
   -0.8093   -0.0085   -1.1246 C   0  0  0  0  0  4           0  0  0
    2.9883    4.0291    0.0008 C   0  0  0  0  0  4           0  0  0
    1.9910    1.3970    0.0000 C   0  0  0  0  0  4           0  0  0
    2.7440    3.3665    1.2075 C   0  0  0  0  0  4           0  0  0
    2.7263    3.3760   -1.2078 C   0  0  0  0  0  4           0  0  0
    2.2481    2.0608    1.2064 C   0  0  0  0  0  4           0  0  0
    2.2270    2.0704   -1.2056 C   0  0  0  0  0  4           0  0  0
   -0.0496   -1.4279   -2.9865 C   0  0  0  0  0  4           0  0  0
    5.1854    9.7769   -1.1554 C   0  0  0  0  0  4           0  0  0
    3.8153    6.2044   -0.9787 C   0  0  0  0  0  4           0  0  0
   -0.0216   -2.7296   -4.9596 C   0  0  0  0  0  4           0  0  0
    1.4499   -0.0000    0.0000 C   0  0  0  0  0  4           0  0  0
   -0.3297   -0.0006    2.5204 C   0  0  0  0  0  4           0  0  0
   -0.2528   -0.0150   -2.5008 C   0  0  0  0  0  4           0  0  0
    4.6728    8.4525   -1.6456 C   0  0  0  0  0  4           0  0  0
    4.3302    7.5348   -0.4862 C   0  0  0  0  0  4           0  0  0
   -1.0844   -0.9983    3.3936 C   0  0  0  0  0  4           0  0  0
   -0.5947   -1.0068    4.8395 C   0  0  0  0  0  4           0  0  0
   -1.3462   -2.0012    5.7120 C   0  0  0  0  0  4           0  0  0
  1 10  1  0     0  0
  2 19  2  0     0  0
  3 20  2  0     0  0
  4 21  2  0     0  0
  5 19  1  0     0  0
  5 22  1  0     0  0
  6 20  1  0     0  0
  7 11  1  0     0  0
  7 12  1  0     0  0
  7 23  1  0     0  0
  8 10  1  0     0  0
  8 11  2  0     0  0
  9 13  1  0     0  0
  9 21  1  0     0  0
 10 12  2  0     0  0
 11 24  1  0     0  0
 12 25  1  0     0  0
 13 15  2  0     0  0
 13 16  1  0     0  0
 14 17  2  0     0  0
 14 18  1  0     0  0
 14 23  1  0     0  0
 15 17  1  0     0  0
 16 18  2  0     0  0
 19 25  1  0     0  0
 20 26  1  0     0  0
 21 27  1  0     0  0
 24 28  1  0     0  0
 26 27  1  0     0  0
 28 29  1  0     0  0
 29 30  1  0     0  0
M  END
> <standard_type>
pIC50

> <# Confs.>
25

> <canonical_smiles>
CCCCC1=NC(Cl)=C(CC(OC)=O)N1CC2=CC=C(NC(CCC(O)=O)=O)C=C2

> <standard_relation>
=

> <Publication_ID>
nan

> <predicted_activity_value>
5.0

> <actual_activity_value>
4.337242168318426

> <Compound>
23

> <standard_units>
nM

> hash
17748807188493933904

$$$$
21_
XXILIB    08252103513D 0   0.00000     0.00000

 25 26  0     1  0            999 V2000
   -3.5561   -0.1021   -1.4815 Cl  0  0  0  0  0  1           0  0  0
    0.9270   -2.0720   -2.8869 O   0  0  0  0  0  2           0  0  0
    3.5178    5.3598    2.3712 O   0  0  0  0  0  2           0  0  0
   -1.2406   -1.9968   -3.5558 O   0  0  0  0  0  2           0  0  0
    4.2702    7.2368    1.3406 O   0  0  0  0  0  2           0  0  0
    0.0000    0.0000    0.0000 N   0  0  0  0  0  3           0  0  0
   -2.0838   -0.0300    0.7699 N   0  0  0  0  0  3           0  0  0
   -2.0979   -0.0532   -0.5999 C   0  0  0  0  0  4           0  0  0
   -0.8128    0.0000    1.1169 C   0  0  0  0  0  4           0  0  0
   -0.8147   -0.0368   -1.1149 C   0  0  0  0  0  4           0  0  0
    1.9917    1.3968    0.0000 C   0  0  0  0  0  4           0  0  0
    3.0110    4.0265   -0.0437 C   0  0  0  0  0  4           0  0  0
    1.1251    2.4973    0.0000 C   0  0  0  0  0  4           0  0  0
    3.3732    1.6248   -0.0249 C   0  0  0  0  0  4           0  0  0
    1.6298    3.7996   -0.0153 C   0  0  0  0  0  4           0  0  0
    3.8783    2.9272   -0.0408 C   0  0  0  0  0  4           0  0  0
   -0.1274   -1.4582   -2.9985 C   0  0  0  0  0  4           0  0  0
    3.7622    5.9791    1.3428 C   0  0  0  0  0  4           0  0  0
    1.4501    0.0000   -0.0000 C   0  0  0  0  0  4           0  0  0
   -0.3205    0.0302    2.5193 C   0  0  0  0  0  4           0  0  0
   -0.3326   -0.0479   -2.5190 C   0  0  0  0  0  4           0  0  0
    3.5536    5.4261   -0.0398 C   0  0  0  0  0  4           0  0  0
   -0.1005   -1.3688    3.0862 C   0  0  0  0  0  4           0  0  0
    0.4068   -1.3985    4.5287 C   0  0  0  0  0  4           0  0  0
    0.6134   -2.8104    5.0569 C   0  0  0  0  0  4           0  0  0
  1  8  1  0     0  0
  2 17  2  0     0  0
  3 18  2  0     0  0
  4 17  1  0     0  0
  5 18  1  0     0  0
  6  9  1  0     0  0
  6 10  1  0     0  0
  6 19  1  0     0  0
  7  8  1  0     0  0
  7  9  2  0     0  0
  8 10  2  0     0  0
  9 20  1  0     0  0
 10 21  1  0     0  0
 11 13  2  0     0  0
 11 14  1  0     0  0
 11 19  1  0     0  0
 12 15  2  0     0  0
 12 16  1  0     0  0
 12 22  1  0     0  0
 13 15  1  0     0  0
 14 16  2  0     0  0
 17 21  1  0     0  0
 18 22  1  0     0  0
 20 23  1  0     0  0
 23 24  1  0     0  0
 24 25  1  0     0  0
M  END
> <standard_type>
pIC50

> <# Confs.>
25

> <canonical_smiles>
CCCCC1=NC(Cl)=C(CC(O)=O)N1CC2=CC=C(CC(O)=O)C=C2

> <standard_relation>
=

> <Publication_ID>
nan

> <predicted_activity_value>
5.0

> <actual_activity_value>
4.886056647693163

> <Compound>
21

> <standard_units>
nM

> hash
15933815746296400870

$$$$
21_
XXILIB    08252103513D 0   0.00000     0.00000

 25 26  0     1  0            999 V2000
   -3.5561   -0.1021   -1.4815 Cl  0  0  0  0  0  1           0  0  0
    0.5439    2.1992   -2.5496 O   0  0  0  0  0  2           0  0  0
    3.5178   -5.3598   -2.3712 O   0  0  0  0  0  2           0  0  0
   -0.9570    1.5898   -4.1393 O   0  0  0  0  0  2           0  0  0
    4.2702   -7.2368   -1.3406 O   0  0  0  0  0  2           0  0  0
    0.0000    0.0000    0.0000 N   0  0  0  0  0  3           0  0  0
   -2.0838   -0.0300    0.7699 N   0  0  0  0  0  3           0  0  0
   -2.0979   -0.0532   -0.5999 C   0  0  0  0  0  4           0  0  0
   -0.8128    0.0000    1.1169 C   0  0  0  0  0  4           0  0  0
   -0.8147   -0.0368   -1.1149 C   0  0  0  0  0  4           0  0  0
    1.9917   -1.3968    0.0000 C   0  0  0  0  0  4           0  0  0
    3.0110   -4.0265    0.0437 C   0  0  0  0  0  4           0  0  0
    1.1251   -2.4973   -0.0000 C   0  0  0  0  0  4           0  0  0
    3.3732   -1.6248    0.0249 C   0  0  0  0  0  4           0  0  0
    1.6298   -3.7996    0.0153 C   0  0  0  0  0  4           0  0  0
    3.8783   -2.9272    0.0408 C   0  0  0  0  0  4           0  0  0
   -0.1932    1.3544   -3.0434 C   0  0  0  0  0  4           0  0  0
    3.7622   -5.9791   -1.3428 C   0  0  0  0  0  4           0  0  0
    1.4501   -0.0000    0.0000 C   0  0  0  0  0  4           0  0  0
   -0.3205    0.0302    2.5193 C   0  0  0  0  0  4           0  0  0
   -0.3326   -0.0479   -2.5190 C   0  0  0  0  0  4           0  0  0
    3.5536   -5.4261    0.0398 C   0  0  0  0  0  4           0  0  0
   -0.1569    1.4528    3.0452 C   0  0  0  0  0  4           0  0  0
    0.3480    1.5447    4.4859 C   0  0  0  0  0  4           0  0  0
    0.4977    2.9785    4.9727 C   0  0  0  0  0  4           0  0  0
  1  8  1  0     0  0
  2 17  2  0     0  0
  3 18  2  0     0  0
  4 17  1  0     0  0
  5 18  1  0     0  0
  6  9  1  0     0  0
  6 10  1  0     0  0
  6 19  1  0     0  0
  7  8  1  0     0  0
  7  9  2  0     0  0
  8 10  2  0     0  0
  9 20  1  0     0  0
 10 21  1  0     0  0
 11 13  2  0     0  0
 11 14  1  0     0  0
 11 19  1  0     0  0
 12 15  2  0     0  0
 12 16  1  0     0  0
 12 22  1  0     0  0
 13 15  1  0     0  0
 14 16  2  0     0  0
 17 21  1  0     0  0
 18 22  1  0     0  0
 20 23  1  0     0  0
 23 24  1  0     0  0
 24 25  1  0     0  0
M  END
> <standard_type>
pIC50

> <# Confs.>
25

> <canonical_smiles>
CCCCC1=NC(Cl)=C(CC(O)=O)N1CC2=CC=C(CC(O)=O)C=C2

> <standard_relation>
=

> <Publication_ID>
nan

> <predicted_activity_value>
5.0

> <actual_activity_value>
4.886056647693163

> <Compound>
21

> <standard_units>
nM

> hash
15933815746296400870

$$$$
21_
XXILIB    08252103513D 0   0.00000     0.00000

 25 26  0     1  0            999 V2000
   -3.5561   -0.1021   -1.4815 Cl  0  0  0  0  0  1           0  0  0
    0.9270   -2.0720   -2.8869 O   0  0  0  0  0  2           0  0  0
    5.1534    4.7391   -1.7267 O   0  0  0  0  0  2           0  0  0
   -1.2406   -1.9968   -3.5558 O   0  0  0  0  0  2           0  0  0
    5.1808    6.8914   -1.0069 O   0  0  0  0  0  2           0  0  0
    0.0000    0.0000    0.0000 N   0  0  0  0  0  3           0  0  0
   -2.0838   -0.0300    0.7699 N   0  0  0  0  0  3           0  0  0
   -2.0979   -0.0532   -0.5999 C   0  0  0  0  0  4           0  0  0
   -0.8128    0.0000    1.1169 C   0  0  0  0  0  4           0  0  0
   -0.8147   -0.0368   -1.1149 C   0  0  0  0  0  4           0  0  0
    1.9917    1.3968    0.0000 C   0  0  0  0  0  4           0  0  0
    3.0399    4.0154   -0.0310 C   0  0  0  0  0  4           0  0  0
    1.4544    2.3697   -0.8526 C   0  0  0  0  0  4           0  0  0
    3.0604    1.7461    0.8349 C   0  0  0  0  0  4           0  0  0
    1.9692    3.6680   -0.8635 C   0  0  0  0  0  4           0  0  0
    3.5759    3.0445    0.8238 C   0  0  0  0  0  4           0  0  0
   -0.1274   -1.4582   -2.9985 C   0  0  0  0  0  4           0  0  0
    4.7092    5.6196   -0.9999 C   0  0  0  0  0  4           0  0  0
    1.4501   -0.0000   -0.0000 C   0  0  0  0  0  4           0  0  0
   -0.3205    0.0302    2.5193 C   0  0  0  0  0  4           0  0  0
   -0.3326   -0.0479   -2.5190 C   0  0  0  0  0  4           0  0  0
    3.5799    5.4159   -0.0283 C   0  0  0  0  0  4           0  0  0
   -0.1005   -1.3688    3.0862 C   0  0  0  0  0  4           0  0  0
    0.4068   -1.3985    4.5287 C   0  0  0  0  0  4           0  0  0
    0.6134   -2.8104    5.0569 C   0  0  0  0  0  4           0  0  0
  1  8  1  0     0  0
  2 17  2  0     0  0
  3 18  2  0     0  0
  4 17  1  0     0  0
  5 18  1  0     0  0
  6  9  1  0     0  0
  6 10  1  0     0  0
  6 19  1  0     0  0
  7  8  1  0     0  0
  7  9  2  0     0  0
  8 10  2  0     0  0
  9 20  1  0     0  0
 10 21  1  0     0  0
 11 13  2  0     0  0
 11 14  1  0     0  0
 11 19  1  0     0  0
 12 15  2  0     0  0
 12 16  1  0     0  0
 12 22  1  0     0  0
 13 15  1  0     0  0
 14 16  2  0     0  0
 17 21  1  0     0  0
 18 22  1  0     0  0
 20 23  1  0     0  0
 23 24  1  0     0  0
 24 25  1  0     0  0
M  END
> <standard_type>
pIC50

> <# Confs.>
25

> <canonical_smiles>
CCCCC1=NC(Cl)=C(CC(O)=O)N1CC2=CC=C(CC(O)=O)C=C2

> <standard_relation>
=

> <Publication_ID>
nan

> <predicted_activity_value>
5.0

> <actual_activity_value>
4.886056647693163

> <Compound>
21

> <standard_units>
nM

> hash
15933815746296400870

$$$$
21_
XXILIB    08252103513D 0   0.00000     0.00000

 25 26  0     1  0            999 V2000
   -3.5561   -0.1021   -1.4815 Cl  0  0  0  0  0  1           0  0  0
    0.6480   -2.2515   -2.4786 O   0  0  0  0  0  2           0  0  0
    3.5178    5.3598    2.3712 O   0  0  0  0  0  2           0  0  0
   -0.9063   -1.7758   -4.0626 O   0  0  0  0  0  2           0  0  0
    4.2702    7.2368    1.3406 O   0  0  0  0  0  2           0  0  0
    0.0000    0.0000    0.0000 N   0  0  0  0  0  3           0  0  0
   -2.0838   -0.0300    0.7699 N   0  0  0  0  0  3           0  0  0
   -2.0979   -0.0532   -0.5999 C   0  0  0  0  0  4           0  0  0
   -0.8128    0.0000    1.1169 C   0  0  0  0  0  4           0  0  0
   -0.8147   -0.0368   -1.1149 C   0  0  0  0  0  4           0  0  0
    1.9917    1.3968    0.0000 C   0  0  0  0  0  4           0  0  0
    3.0110    4.0265   -0.0437 C   0  0  0  0  0  4           0  0  0
    1.1251    2.4973    0.0000 C   0  0  0  0  0  4           0  0  0
    3.3732    1.6248   -0.0249 C   0  0  0  0  0  4           0  0  0
    1.6298    3.7996   -0.0153 C   0  0  0  0  0  4           0  0  0
    3.8783    2.9272   -0.0408 C   0  0  0  0  0  4           0  0  0
   -0.1274   -1.4582   -2.9985 C   0  0  0  0  0  4           0  0  0
    3.7622    5.9791    1.3428 C   0  0  0  0  0  4           0  0  0
    1.4501    0.0000   -0.0000 C   0  0  0  0  0  4           0  0  0
   -0.3205    0.0302    2.5193 C   0  0  0  0  0  4           0  0  0
   -0.3326   -0.0479   -2.5190 C   0  0  0  0  0  4           0  0  0
    3.5536    5.4261   -0.0398 C   0  0  0  0  0  4           0  0  0
   -0.1005   -1.3688    3.0862 C   0  0  0  0  0  4           0  0  0
   -1.3525   -2.2465    3.1190 C   0  0  0  0  0  4           0  0  0
   -1.0918   -3.6323    3.6906 C   0  0  0  0  0  4           0  0  0
  1  8  1  0     0  0
  2 17  2  0     0  0
  3 18  2  0     0  0
  4 17  1  0     0  0
  5 18  1  0     0  0
  6  9  1  0     0  0
  6 10  1  0     0  0
  6 19  1  0     0  0
  7  8  1  0     0  0
  7  9  2  0     0  0
  8 10  2  0     0  0
  9 20  1  0     0  0
 10 21  1  0     0  0
 11 13  2  0     0  0
 11 14  1  0     0  0
 11 19  1  0     0  0
 12 15  2  0     0  0
 12 16  1  0     0  0
 12 22  1  0     0  0
 13 15  1  0     0  0
 14 16  2  0     0  0
 17 21  1  0     0  0
 18 22  1  0     0  0
 20 23  1  0     0  0
 23 24  1  0     0  0
 24 25  1  0     0  0
M  END
> <standard_type>
pIC50

> <# Confs.>
25

> <canonical_smiles>
CCCCC1=NC(Cl)=C(CC(O)=O)N1CC2=CC=C(CC(O)=O)C=C2

> <standard_relation>
=

> <Publication_ID>
nan

> <predicted_activity_value>
5.0

> <actual_activity_value>
4.886056647693163

> <Compound>
21

> <standard_units>
nM

> hash
15933815746296400870

$$$$
21_
XXILIB    08252103513D 0   0.00000     0.00000

 25 26  0     1  0            999 V2000
   -3.5561   -0.1021   -1.4815 Cl  0  0  0  0  0  1           0  0  0
    0.9270   -2.0720   -2.8869 O   0  0  0  0  0  2           0  0  0
    3.5178    5.3598    2.3712 O   0  0  0  0  0  2           0  0  0
   -1.2406   -1.9968   -3.5558 O   0  0  0  0  0  2           0  0  0
    4.2702    7.2368    1.3406 O   0  0  0  0  0  2           0  0  0
    0.0000    0.0000    0.0000 N   0  0  0  0  0  3           0  0  0
   -2.0838   -0.0300    0.7699 N   0  0  0  0  0  3           0  0  0
   -2.0979   -0.0532   -0.5999 C   0  0  0  0  0  4           0  0  0
   -0.8128    0.0000    1.1169 C   0  0  0  0  0  4           0  0  0
   -0.8147   -0.0368   -1.1149 C   0  0  0  0  0  4           0  0  0
    1.9917    1.3968    0.0000 C   0  0  0  0  0  4           0  0  0
    3.0110    4.0265   -0.0437 C   0  0  0  0  0  4           0  0  0
    1.1251    2.4973    0.0000 C   0  0  0  0  0  4           0  0  0
    3.3732    1.6248   -0.0249 C   0  0  0  0  0  4           0  0  0
    1.6298    3.7996   -0.0153 C   0  0  0  0  0  4           0  0  0
    3.8783    2.9272   -0.0408 C   0  0  0  0  0  4           0  0  0
   -0.1274   -1.4582   -2.9985 C   0  0  0  0  0  4           0  0  0
    3.7622    5.9791    1.3428 C   0  0  0  0  0  4           0  0  0
    1.4501    0.0000   -0.0000 C   0  0  0  0  0  4           0  0  0
   -0.3205    0.0302    2.5193 C   0  0  0  0  0  4           0  0  0
   -0.3326   -0.0479   -2.5190 C   0  0  0  0  0  4           0  0  0
    3.5536    5.4261   -0.0398 C   0  0  0  0  0  4           0  0  0
   -0.1569    1.4528    3.0452 C   0  0  0  0  0  4           0  0  0
    0.3480    1.5447    4.4859 C   0  0  0  0  0  4           0  0  0
    0.4977    2.9785    4.9727 C   0  0  0  0  0  4           0  0  0
  1  8  1  0     0  0
  2 17  2  0     0  0
  3 18  2  0     0  0
  4 17  1  0     0  0
  5 18  1  0     0  0
  6  9  1  0     0  0
  6 10  1  0     0  0
  6 19  1  0     0  0
  7  8  1  0     0  0
  7  9  2  0     0  0
  8 10  2  0     0  0
  9 20  1  0     0  0
 10 21  1  0     0  0
 11 13  2  0     0  0
 11 14  1  0     0  0
 11 19  1  0     0  0
 12 15  2  0     0  0
 12 16  1  0     0  0
 12 22  1  0     0  0
 13 15  1  0     0  0
 14 16  2  0     0  0
 17 21  1  0     0  0
 18 22  1  0     0  0
 20 23  1  0     0  0
 23 24  1  0     0  0
 24 25  1  0     0  0
M  END
> <standard_type>
pIC50

> <# Confs.>
25

> <canonical_smiles>
CCCCC1=NC(Cl)=C(CC(O)=O)N1CC2=CC=C(CC(O)=O)C=C2

> <standard_relation>
=

> <Publication_ID>
nan

> <predicted_activity_value>
5.0

> <actual_activity_value>
4.886056647693163

> <Compound>
21

> <standard_units>
nM

> hash
15933815746296400870

$$$$
21_
XXILIB    08252103513D 0   0.00000     0.00000

 25 26  0     1  0            999 V2000
   -3.5561   -0.1021   -1.4815 Cl  0  0  0  0  0  1           0  0  0
    0.9270   -2.0720   -2.8869 O   0  0  0  0  0  2           0  0  0
    5.1534    4.7391   -1.7267 O   0  0  0  0  0  2           0  0  0
   -1.2406   -1.9968   -3.5558 O   0  0  0  0  0  2           0  0  0
    5.1808    6.8914   -1.0069 O   0  0  0  0  0  2           0  0  0
    0.0000    0.0000    0.0000 N   0  0  0  0  0  3           0  0  0
   -2.0838   -0.0300    0.7699 N   0  0  0  0  0  3           0  0  0
   -2.0979   -0.0532   -0.5999 C   0  0  0  0  0  4           0  0  0
   -0.8128    0.0000    1.1169 C   0  0  0  0  0  4           0  0  0
   -0.8147   -0.0368   -1.1149 C   0  0  0  0  0  4           0  0  0
    1.9917    1.3968    0.0000 C   0  0  0  0  0  4           0  0  0
    3.0399    4.0154   -0.0310 C   0  0  0  0  0  4           0  0  0
    1.4544    2.3697   -0.8526 C   0  0  0  0  0  4           0  0  0
    3.0604    1.7461    0.8349 C   0  0  0  0  0  4           0  0  0
    1.9692    3.6680   -0.8635 C   0  0  0  0  0  4           0  0  0
    3.5759    3.0445    0.8238 C   0  0  0  0  0  4           0  0  0
   -0.1274   -1.4582   -2.9985 C   0  0  0  0  0  4           0  0  0
    4.7092    5.6196   -0.9999 C   0  0  0  0  0  4           0  0  0
    1.4501   -0.0000   -0.0000 C   0  0  0  0  0  4           0  0  0
   -0.3205    0.0302    2.5193 C   0  0  0  0  0  4           0  0  0
   -0.3326   -0.0479   -2.5190 C   0  0  0  0  0  4           0  0  0
    3.5799    5.4159   -0.0283 C   0  0  0  0  0  4           0  0  0
   -0.1569    1.4528    3.0452 C   0  0  0  0  0  4           0  0  0
    0.3480    1.5447    4.4859 C   0  0  0  0  0  4           0  0  0
    0.4977    2.9785    4.9727 C   0  0  0  0  0  4           0  0  0
  1  8  1  0     0  0
  2 17  2  0     0  0
  3 18  2  0     0  0
  4 17  1  0     0  0
  5 18  1  0     0  0
  6  9  1  0     0  0
  6 10  1  0     0  0
  6 19  1  0     0  0
  7  8  1  0     0  0
  7  9  2  0     0  0
  8 10  2  0     0  0
  9 20  1  0     0  0
 10 21  1  0     0  0
 11 13  2  0     0  0
 11 14  1  0     0  0
 11 19  1  0     0  0
 12 15  2  0     0  0
 12 16  1  0     0  0
 12 22  1  0     0  0
 13 15  1  0     0  0
 14 16  2  0     0  0
 17 21  1  0     0  0
 18 22  1  0     0  0
 20 23  1  0     0  0
 23 24  1  0     0  0
 24 25  1  0     0  0
M  END
> <standard_type>
pIC50

> <# Confs.>
25

> <canonical_smiles>
CCCCC1=NC(Cl)=C(CC(O)=O)N1CC2=CC=C(CC(O)=O)C=C2

> <standard_relation>
=

> <Publication_ID>
nan

> <predicted_activity_value>
5.0

> <actual_activity_value>
4.886056647693163

> <Compound>
21

> <standard_units>
nM

> hash
15933815746296400870

$$$$
21_
XXILIB    08252103513D 0   0.00000     0.00000

 25 26  0     1  0            999 V2000
   -3.5561   -0.1021   -1.4815 Cl  0  0  0  0  0  1           0  0  0
    0.0761    2.3229   -2.3431 O   0  0  0  0  0  2           0  0  0
    3.5178   -5.3598   -2.3712 O   0  0  0  0  0  2           0  0  0
   -0.3781    1.4406   -4.3844 O   0  0  0  0  0  2           0  0  0
    4.2702   -7.2368   -1.3406 O   0  0  0  0  0  2           0  0  0
    0.0000    0.0000    0.0000 N   0  0  0  0  0  3           0  0  0
   -2.0838   -0.0300    0.7699 N   0  0  0  0  0  3           0  0  0
   -2.0979   -0.0532   -0.5999 C   0  0  0  0  0  4           0  0  0
   -0.8128    0.0000    1.1169 C   0  0  0  0  0  4           0  0  0
   -0.8147   -0.0368   -1.1149 C   0  0  0  0  0  4           0  0  0
    1.9917   -1.3968    0.0000 C   0  0  0  0  0  4           0  0  0
    3.0110   -4.0265    0.0437 C   0  0  0  0  0  4           0  0  0
    1.1251   -2.4973   -0.0000 C   0  0  0  0  0  4           0  0  0
    3.3732   -1.6248    0.0249 C   0  0  0  0  0  4           0  0  0
    1.6298   -3.7996    0.0153 C   0  0  0  0  0  4           0  0  0
    3.8783   -2.9272    0.0408 C   0  0  0  0  0  4           0  0  0
   -0.1932    1.3544   -3.0434 C   0  0  0  0  0  4           0  0  0
    3.7622   -5.9791   -1.3428 C   0  0  0  0  0  4           0  0  0
    1.4501   -0.0000    0.0000 C   0  0  0  0  0  4           0  0  0
   -0.3205    0.0302    2.5193 C   0  0  0  0  0  4           0  0  0
   -0.3326   -0.0479   -2.5190 C   0  0  0  0  0  4           0  0  0
    3.5536   -5.4261    0.0398 C   0  0  0  0  0  4           0  0  0
   -0.1569    1.4528    3.0452 C   0  0  0  0  0  4           0  0  0
   -1.4429    2.2804    3.0532 C   0  0  0  0  0  4           0  0  0
   -1.2382    3.6915    3.5840 C   0  0  0  0  0  4           0  0  0
  1  8  1  0     0  0
  2 17  2  0     0  0
  3 18  2  0     0  0
  4 17  1  0     0  0
  5 18  1  0     0  0
  6  9  1  0     0  0
  6 10  1  0     0  0
  6 19  1  0     0  0
  7  8  1  0     0  0
  7  9  2  0     0  0
  8 10  2  0     0  0
  9 20  1  0     0  0
 10 21  1  0     0  0
 11 13  2  0     0  0
 11 14  1  0     0  0
 11 19  1  0     0  0
 12 15  2  0     0  0
 12 16  1  0     0  0
 12 22  1  0     0  0
 13 15  1  0     0  0
 14 16  2  0     0  0
 17 21  1  0     0  0
 18 22  1  0     0  0
 20 23  1  0     0  0
 23 24  1  0     0  0
 24 25  1  0     0  0
M  END
> <standard_type>
pIC50

> <# Confs.>
25

> <canonical_smiles>
CCCCC1=NC(Cl)=C(CC(O)=O)N1CC2=CC=C(CC(O)=O)C=C2

> <standard_relation>
=

> <Publication_ID>
nan

> <predicted_activity_value>
5.0

> <actual_activity_value>
4.886056647693163

> <Compound>
21

> <standard_units>
nM

> hash
15933815746296400870

$$$$
21_
XXILIB    08252103513D 0   0.00000     0.00000

 25 26  0     1  0            999 V2000
   -3.5561   -0.1021   -1.4815 Cl  0  0  0  0  0  1           0  0  0
    0.9270   -2.0720   -2.8869 O   0  0  0  0  0  2           0  0  0
    1.9571    5.9649    1.6699 O   0  0  0  0  0  2           0  0  0
   -1.2406   -1.9968   -3.5558 O   0  0  0  0  0  2           0  0  0
    3.3827    7.5809    0.9574 O   0  0  0  0  0  2           0  0  0
    0.0000    0.0000    0.0000 N   0  0  0  0  0  3           0  0  0
   -2.0838   -0.0300    0.7699 N   0  0  0  0  0  3           0  0  0
   -2.0979   -0.0532   -0.5999 C   0  0  0  0  0  4           0  0  0
   -0.8128    0.0000    1.1169 C   0  0  0  0  0  4           0  0  0
   -0.8147   -0.0368   -1.1149 C   0  0  0  0  0  4           0  0  0
    1.9917    1.3968    0.0000 C   0  0  0  0  0  4           0  0  0
    3.0399    4.0154   -0.0310 C   0  0  0  0  0  4           0  0  0
    1.4544    2.3697   -0.8526 C   0  0  0  0  0  4           0  0  0
    3.0604    1.7461    0.8349 C   0  0  0  0  0  4           0  0  0
    1.9692    3.6680   -0.8635 C   0  0  0  0  0  4           0  0  0
    3.5759    3.0445    0.8238 C   0  0  0  0  0  4           0  0  0
   -0.1274   -1.4582   -2.9985 C   0  0  0  0  0  4           0  0  0
    2.8784    6.3217    0.9456 C   0  0  0  0  0  4           0  0  0
    1.4501   -0.0000   -0.0000 C   0  0  0  0  0  4           0  0  0
   -0.3205    0.0302    2.5193 C   0  0  0  0  0  4           0  0  0
   -0.3326   -0.0479   -2.5190 C   0  0  0  0  0  4           0  0  0
    3.5799    5.4159   -0.0283 C   0  0  0  0  0  4           0  0  0
   -0.1005   -1.3688    3.0862 C   0  0  0  0  0  4           0  0  0
    0.4068   -1.3985    4.5287 C   0  0  0  0  0  4           0  0  0
    0.6134   -2.8104    5.0569 C   0  0  0  0  0  4           0  0  0
  1  8  1  0     0  0
  2 17  2  0     0  0
  3 18  2  0     0  0
  4 17  1  0     0  0
  5 18  1  0     0  0
  6  9  1  0     0  0
  6 10  1  0     0  0
  6 19  1  0     0  0
  7  8  1  0     0  0
  7  9  2  0     0  0
  8 10  2  0     0  0
  9 20  1  0     0  0
 10 21  1  0     0  0
 11 13  2  0     0  0
 11 14  1  0     0  0
 11 19  1  0     0  0
 12 15  2  0     0  0
 12 16  1  0     0  0
 12 22  1  0     0  0
 13 15  1  0     0  0
 14 16  2  0     0  0
 17 21  1  0     0  0
 18 22  1  0     0  0
 20 23  1  0     0  0
 23 24  1  0     0  0
 24 25  1  0     0  0
M  END
> <standard_type>
pIC50

> <# Confs.>
25

> <canonical_smiles>
CCCCC1=NC(Cl)=C(CC(O)=O)N1CC2=CC=C(CC(O)=O)C=C2

> <standard_relation>
=

> <Publication_ID>
nan

> <predicted_activity_value>
5.0

> <actual_activity_value>
4.886056647693163

> <Compound>
21

> <standard_units>
nM

> hash
15933815746296400870

$$$$
21_
XXILIB    08252103513D 0   0.00000     0.00000

 25 26  0     1  0            999 V2000
   -3.5561   -0.1021   -1.4815 Cl  0  0  0  0  0  1           0  0  0
    0.9270   -2.0720   -2.8869 O   0  0  0  0  0  2           0  0  0
    1.9571    5.9649    1.6699 O   0  0  0  0  0  2           0  0  0
   -1.2406   -1.9968   -3.5558 O   0  0  0  0  0  2           0  0  0
    3.3827    7.5809    0.9574 O   0  0  0  0  0  2           0  0  0
    0.0000    0.0000    0.0000 N   0  0  0  0  0  3           0  0  0
   -2.0838   -0.0300    0.7699 N   0  0  0  0  0  3           0  0  0
   -2.0979   -0.0532   -0.5999 C   0  0  0  0  0  4           0  0  0
   -0.8128    0.0000    1.1169 C   0  0  0  0  0  4           0  0  0
   -0.8147   -0.0368   -1.1149 C   0  0  0  0  0  4           0  0  0
    1.9917    1.3968    0.0000 C   0  0  0  0  0  4           0  0  0
    3.0399    4.0154   -0.0310 C   0  0  0  0  0  4           0  0  0
    1.4544    2.3697   -0.8526 C   0  0  0  0  0  4           0  0  0
    3.0604    1.7461    0.8349 C   0  0  0  0  0  4           0  0  0
    1.9692    3.6680   -0.8635 C   0  0  0  0  0  4           0  0  0
    3.5759    3.0445    0.8238 C   0  0  0  0  0  4           0  0  0
   -0.1274   -1.4582   -2.9985 C   0  0  0  0  0  4           0  0  0
    2.8784    6.3217    0.9456 C   0  0  0  0  0  4           0  0  0
    1.4501   -0.0000   -0.0000 C   0  0  0  0  0  4           0  0  0
   -0.3205    0.0302    2.5193 C   0  0  0  0  0  4           0  0  0
   -0.3326   -0.0479   -2.5190 C   0  0  0  0  0  4           0  0  0
    3.5799    5.4159   -0.0283 C   0  0  0  0  0  4           0  0  0
   -0.1569    1.4528    3.0452 C   0  0  0  0  0  4           0  0  0
    0.3480    1.5447    4.4859 C   0  0  0  0  0  4           0  0  0
    0.4977    2.9785    4.9727 C   0  0  0  0  0  4           0  0  0
  1  8  1  0     0  0
  2 17  2  0     0  0
  3 18  2  0     0  0
  4 17  1  0     0  0
  5 18  1  0     0  0
  6  9  1  0     0  0
  6 10  1  0     0  0
  6 19  1  0     0  0
  7  8  1  0     0  0
  7  9  2  0     0  0
  8 10  2  0     0  0
  9 20  1  0     0  0
 10 21  1  0     0  0
 11 13  2  0     0  0
 11 14  1  0     0  0
 11 19  1  0     0  0
 12 15  2  0     0  0
 12 16  1  0     0  0
 12 22  1  0     0  0
 13 15  1  0     0  0
 14 16  2  0     0  0
 17 21  1  0     0  0
 18 22  1  0     0  0
 20 23  1  0     0  0
 23 24  1  0     0  0
 24 25  1  0     0  0
M  END
> <standard_type>
pIC50

> <# Confs.>
25

> <canonical_smiles>
CCCCC1=NC(Cl)=C(CC(O)=O)N1CC2=CC=C(CC(O)=O)C=C2

> <standard_relation>
=

> <Publication_ID>
nan

> <predicted_activity_value>
5.0

> <actual_activity_value>
4.886056647693163

> <Compound>
21

> <standard_units>
nM

> hash
15933815746296400870

$$$$
21_
XXILIB    08252103513D 0   0.00000     0.00000

 25 26  0     1  0            999 V2000
   -3.5561   -0.1021   -1.4815 Cl  0  0  0  0  0  1           0  0  0
    0.0761    2.3229   -2.3431 O   0  0  0  0  0  2           0  0  0
    3.5178   -5.3598   -2.3712 O   0  0  0  0  0  2           0  0  0
   -0.3781    1.4406   -4.3844 O   0  0  0  0  0  2           0  0  0
    4.2702   -7.2368   -1.3406 O   0  0  0  0  0  2           0  0  0
    0.0000    0.0000    0.0000 N   0  0  0  0  0  3           0  0  0
   -2.0838   -0.0300    0.7699 N   0  0  0  0  0  3           0  0  0
   -2.0979   -0.0532   -0.5999 C   0  0  0  0  0  4           0  0  0
   -0.8128    0.0000    1.1169 C   0  0  0  0  0  4           0  0  0
   -0.8147   -0.0368   -1.1149 C   0  0  0  0  0  4           0  0  0
    1.9917   -1.3968    0.0000 C   0  0  0  0  0  4           0  0  0
    3.0110   -4.0265    0.0437 C   0  0  0  0  0  4           0  0  0
    1.1251   -2.4973   -0.0000 C   0  0  0  0  0  4           0  0  0
    3.3732   -1.6248    0.0249 C   0  0  0  0  0  4           0  0  0
    1.6298   -3.7996    0.0153 C   0  0  0  0  0  4           0  0  0
    3.8783   -2.9272    0.0408 C   0  0  0  0  0  4           0  0  0
   -0.1932    1.3544   -3.0434 C   0  0  0  0  0  4           0  0  0
    3.7622   -5.9791   -1.3428 C   0  0  0  0  0  4           0  0  0
    1.4501   -0.0000    0.0000 C   0  0  0  0  0  4           0  0  0
   -0.3205    0.0302    2.5193 C   0  0  0  0  0  4           0  0  0
   -0.3326   -0.0479   -2.5190 C   0  0  0  0  0  4           0  0  0
    3.5536   -5.4261    0.0398 C   0  0  0  0  0  4           0  0  0
   -1.4600    0.0222    3.5335 C   0  0  0  0  0  4           0  0  0
   -1.0113    0.0524    4.9952 C   0  0  0  0  0  4           0  0  0
   -2.1758    0.0434    5.9745 C   0  0  0  0  0  4           0  0  0
  1  8  1  0     0  0
  2 17  2  0     0  0
  3 18  2  0     0  0
  4 17  1  0     0  0
  5 18  1  0     0  0
  6  9  1  0     0  0
  6 10  1  0     0  0
  6 19  1  0     0  0
  7  8  1  0     0  0
  7  9  2  0     0  0
  8 10  2  0     0  0
  9 20  1  0     0  0
 10 21  1  0     0  0
 11 13  2  0     0  0
 11 14  1  0     0  0
 11 19  1  0     0  0
 12 15  2  0     0  0
 12 16  1  0     0  0
 12 22  1  0     0  0
 13 15  1  0     0  0
 14 16  2  0     0  0
 17 21  1  0     0  0
 18 22  1  0     0  0
 20 23  1  0     0  0
 23 24  1  0     0  0
 24 25  1  0     0  0
M  END
> <standard_type>
pIC50

> <# Confs.>
25

> <canonical_smiles>
CCCCC1=NC(Cl)=C(CC(O)=O)N1CC2=CC=C(CC(O)=O)C=C2

> <standard_relation>
=

> <Publication_ID>
nan

> <predicted_activity_value>
5.0

> <actual_activity_value>
4.886056647693163

> <Compound>
21

> <standard_units>
nM

> hash
15933815746296400870

$$$$
21_
XXILIB    08252103513D 0   0.00000     0.00000

 25 26  0     1  0            999 V2000
   -3.5561   -0.1021   -1.4815 Cl  0  0  0  0  0  1           0  0  0
    0.0761    2.3229   -2.3431 O   0  0  0  0  0  2           0  0  0
    3.5178   -5.3598   -2.3712 O   0  0  0  0  0  2           0  0  0
   -0.3781    1.4406   -4.3844 O   0  0  0  0  0  2           0  0  0
    4.2702   -7.2368   -1.3406 O   0  0  0  0  0  2           0  0  0
    0.0000    0.0000    0.0000 N   0  0  0  0  0  3           0  0  0
   -2.0838   -0.0300    0.7699 N   0  0  0  0  0  3           0  0  0
   -2.0979   -0.0532   -0.5999 C   0  0  0  0  0  4           0  0  0
   -0.8128    0.0000    1.1169 C   0  0  0  0  0  4           0  0  0
   -0.8147   -0.0368   -1.1149 C   0  0  0  0  0  4           0  0  0
    1.9917   -1.3968    0.0000 C   0  0  0  0  0  4           0  0  0
    3.0110   -4.0265    0.0437 C   0  0  0  0  0  4           0  0  0
    1.1251   -2.4973   -0.0000 C   0  0  0  0  0  4           0  0  0
    3.3732   -1.6248    0.0249 C   0  0  0  0  0  4           0  0  0
    1.6298   -3.7996    0.0153 C   0  0  0  0  0  4           0  0  0
    3.8783   -2.9272    0.0408 C   0  0  0  0  0  4           0  0  0
   -0.1932    1.3544   -3.0434 C   0  0  0  0  0  4           0  0  0
    3.7622   -5.9791   -1.3428 C   0  0  0  0  0  4           0  0  0
    1.4501   -0.0000    0.0000 C   0  0  0  0  0  4           0  0  0
   -0.3205    0.0302    2.5193 C   0  0  0  0  0  4           0  0  0
   -0.3326   -0.0479   -2.5190 C   0  0  0  0  0  4           0  0  0
    3.5536   -5.4261    0.0398 C   0  0  0  0  0  4           0  0  0
   -1.0501   -0.9696    3.4110 C   0  0  0  0  0  4           0  0  0
   -0.9196   -2.4284    2.9710 C   0  0  0  0  0  4           0  0  0
   -1.6604   -3.3932    3.8850 C   0  0  0  0  0  4           0  0  0
  1  8  1  0     0  0
  2 17  2  0     0  0
  3 18  2  0     0  0
  4 17  1  0     0  0
  5 18  1  0     0  0
  6  9  1  0     0  0
  6 10  1  0     0  0
  6 19  1  0     0  0
  7  8  1  0     0  0
  7  9  2  0     0  0
  8 10  2  0     0  0
  9 20  1  0     0  0
 10 21  1  0     0  0
 11 13  2  0     0  0
 11 14  1  0     0  0
 11 19  1  0     0  0
 12 15  2  0     0  0
 12 16  1  0     0  0
 12 22  1  0     0  0
 13 15  1  0     0  0
 14 16  2  0     0  0
 17 21  1  0     0  0
 18 22  1  0     0  0
 20 23  1  0     0  0
 23 24  1  0     0  0
 24 25  1  0     0  0
M  END
> <standard_type>
pIC50

> <# Confs.>
25

> <canonical_smiles>
CCCCC1=NC(Cl)=C(CC(O)=O)N1CC2=CC=C(CC(O)=O)C=C2

> <standard_relation>
=

> <Publication_ID>
nan

> <predicted_activity_value>
5.0

> <actual_activity_value>
4.886056647693163

> <Compound>
21

> <standard_units>
nM

> hash
15933815746296400870

$$$$
21_
XXILIB    08252103513D 0   0.00000     0.00000

 25 26  0     1  0            999 V2000
   -3.5561   -0.1021   -1.4815 Cl  0  0  0  0  0  1           0  0  0
    0.5439    2.1992   -2.5496 O   0  0  0  0  0  2           0  0  0
    1.9571   -5.9649   -1.6699 O   0  0  0  0  0  2           0  0  0
   -0.9570    1.5898   -4.1393 O   0  0  0  0  0  2           0  0  0
    3.3827   -7.5809   -0.9574 O   0  0  0  0  0  2           0  0  0
    0.0000    0.0000    0.0000 N   0  0  0  0  0  3           0  0  0
   -2.0838   -0.0300    0.7699 N   0  0  0  0  0  3           0  0  0
   -2.0979   -0.0532   -0.5999 C   0  0  0  0  0  4           0  0  0
   -0.8128    0.0000    1.1169 C   0  0  0  0  0  4           0  0  0
   -0.8147   -0.0368   -1.1149 C   0  0  0  0  0  4           0  0  0
    1.9917   -1.3968   -0.0000 C   0  0  0  0  0  4           0  0  0
    3.0399   -4.0154    0.0310 C   0  0  0  0  0  4           0  0  0
    1.4544   -2.3697    0.8526 C   0  0  0  0  0  4           0  0  0
    3.0604   -1.7461   -0.8349 C   0  0  0  0  0  4           0  0  0
    1.9692   -3.6680    0.8635 C   0  0  0  0  0  4           0  0  0
    3.5759   -3.0445   -0.8238 C   0  0  0  0  0  4           0  0  0
   -0.1932    1.3544   -3.0434 C   0  0  0  0  0  4           0  0  0
    2.8784   -6.3217   -0.9456 C   0  0  0  0  0  4           0  0  0
    1.4501    0.0000    0.0000 C   0  0  0  0  0  4           0  0  0
   -0.3205    0.0302    2.5193 C   0  0  0  0  0  4           0  0  0
   -0.3326   -0.0479   -2.5190 C   0  0  0  0  0  4           0  0  0
    3.5799   -5.4159    0.0283 C   0  0  0  0  0  4           0  0  0
   -0.1569    1.4528    3.0452 C   0  0  0  0  0  4           0  0  0
    0.3480    1.5447    4.4859 C   0  0  0  0  0  4           0  0  0
    0.4977    2.9785    4.9727 C   0  0  0  0  0  4           0  0  0
  1  8  1  0     0  0
  2 17  2  0     0  0
  3 18  2  0     0  0
  4 17  1  0     0  0
  5 18  1  0     0  0
  6  9  1  0     0  0
  6 10  1  0     0  0
  6 19  1  0     0  0
  7  8  1  0     0  0
  7  9  2  0     0  0
  8 10  2  0     0  0
  9 20  1  0     0  0
 10 21  1  0     0  0
 11 13  2  0     0  0
 11 14  1  0     0  0
 11 19  1  0     0  0
 12 15  2  0     0  0
 12 16  1  0     0  0
 12 22  1  0     0  0
 13 15  1  0     0  0
 14 16  2  0     0  0
 17 21  1  0     0  0
 18 22  1  0     0  0
 20 23  1  0     0  0
 23 24  1  0     0  0
 24 25  1  0     0  0
M  END
> <standard_type>
pIC50

> <# Confs.>
25

> <canonical_smiles>
CCCCC1=NC(Cl)=C(CC(O)=O)N1CC2=CC=C(CC(O)=O)C=C2

> <standard_relation>
=

> <Publication_ID>
nan

> <predicted_activity_value>
5.0

> <actual_activity_value>
4.886056647693163

> <Compound>
21

> <standard_units>
nM

> hash
15933815746296400870

$$$$
21_
XXILIB    08252103513D 0   0.00000     0.00000

 25 26  0     1  0            999 V2000
   -3.5561   -0.1021   -1.4815 Cl  0  0  0  0  0  1           0  0  0
    0.9270   -2.0720   -2.8869 O   0  0  0  0  0  2           0  0  0
    1.9697    5.9600   -1.6835 O   0  0  0  0  0  2           0  0  0
   -1.2406   -1.9968   -3.5558 O   0  0  0  0  0  2           0  0  0
    3.3649    7.5877   -0.9384 O   0  0  0  0  0  2           0  0  0
    0.0000    0.0000    0.0000 N   0  0  0  0  0  3           0  0  0
   -2.0838   -0.0300    0.7699 N   0  0  0  0  0  3           0  0  0
   -2.0979   -0.0532   -0.5999 C   0  0  0  0  0  4           0  0  0
   -0.8128    0.0000    1.1169 C   0  0  0  0  0  4           0  0  0
   -0.8147   -0.0368   -1.1149 C   0  0  0  0  0  4           0  0  0
    1.9917    1.3968    0.0000 C   0  0  0  0  0  4           0  0  0
    3.0400    4.0153    0.0308 C   0  0  0  0  0  4           0  0  0
    3.0443    1.7533   -0.8526 C   0  0  0  0  0  4           0  0  0
    1.4705    2.3625    0.8702 C   0  0  0  0  0  4           0  0  0
    3.5594    3.0516   -0.8419 C   0  0  0  0  0  4           0  0  0
    1.9859    3.6609    0.8815 C   0  0  0  0  0  4           0  0  0
   -0.1274   -1.4582   -2.9985 C   0  0  0  0  0  4           0  0  0
    2.8857    6.3189   -0.9535 C   0  0  0  0  0  4           0  0  0
    1.4501   -0.0000    0.0000 C   0  0  0  0  0  4           0  0  0
   -0.3205    0.0302    2.5193 C   0  0  0  0  0  4           0  0  0
   -0.3326   -0.0479   -2.5190 C   0  0  0  0  0  4           0  0  0
    3.5801    5.4159    0.0280 C   0  0  0  0  0  4           0  0  0
   -0.1005   -1.3688    3.0862 C   0  0  0  0  0  4           0  0  0
    0.4068   -1.3985    4.5287 C   0  0  0  0  0  4           0  0  0
    0.6134   -2.8104    5.0569 C   0  0  0  0  0  4           0  0  0
  1  8  1  0     0  0
  2 17  2  0     0  0
  3 18  2  0     0  0
  4 17  1  0     0  0
  5 18  1  0     0  0
  6  9  1  0     0  0
  6 10  1  0     0  0
  6 19  1  0     0  0
  7  8  1  0     0  0
  7  9  2  0     0  0
  8 10  2  0     0  0
  9 20  1  0     0  0
 10 21  1  0     0  0
 11 13  2  0     0  0
 11 14  1  0     0  0
 11 19  1  0     0  0
 12 15  2  0     0  0
 12 16  1  0     0  0
 12 22  1  0     0  0
 13 15  1  0     0  0
 14 16  2  0     0  0
 17 21  1  0     0  0
 18 22  1  0     0  0
 20 23  1  0     0  0
 23 24  1  0     0  0
 24 25  1  0     0  0
M  END
> <standard_type>
pIC50

> <# Confs.>
25

> <canonical_smiles>
CCCCC1=NC(Cl)=C(CC(O)=O)N1CC2=CC=C(CC(O)=O)C=C2

> <standard_relation>
=

> <Publication_ID>
nan

> <predicted_activity_value>
5.0

> <actual_activity_value>
4.886056647693163

> <Compound>
21

> <standard_units>
nM

> hash
15933815746296400870

$$$$
21_
XXILIB    08252103513D 0   0.00000     0.00000

 25 26  0     1  0            999 V2000
   -3.5561   -0.1021   -1.4815 Cl  0  0  0  0  0  1           0  0  0
    0.5439    2.1992   -2.5496 O   0  0  0  0  0  2           0  0  0
    5.1534   -4.7391    1.7267 O   0  0  0  0  0  2           0  0  0
   -0.9570    1.5898   -4.1393 O   0  0  0  0  0  2           0  0  0
    5.1808   -6.8914    1.0069 O   0  0  0  0  0  2           0  0  0
    0.0000    0.0000    0.0000 N   0  0  0  0  0  3           0  0  0
   -2.0838   -0.0300    0.7699 N   0  0  0  0  0  3           0  0  0
   -2.0979   -0.0532   -0.5999 C   0  0  0  0  0  4           0  0  0
   -0.8128    0.0000    1.1169 C   0  0  0  0  0  4           0  0  0
   -0.8147   -0.0368   -1.1149 C   0  0  0  0  0  4           0  0  0
    1.9917   -1.3968   -0.0000 C   0  0  0  0  0  4           0  0  0
    3.0399   -4.0154    0.0310 C   0  0  0  0  0  4           0  0  0
    1.4544   -2.3697    0.8526 C   0  0  0  0  0  4           0  0  0
    3.0604   -1.7461   -0.8349 C   0  0  0  0  0  4           0  0  0
    1.9692   -3.6680    0.8635 C   0  0  0  0  0  4           0  0  0
    3.5759   -3.0445   -0.8238 C   0  0  0  0  0  4           0  0  0
   -0.1932    1.3544   -3.0434 C   0  0  0  0  0  4           0  0  0
    4.7092   -5.6196    0.9999 C   0  0  0  0  0  4           0  0  0
    1.4501    0.0000    0.0000 C   0  0  0  0  0  4           0  0  0
   -0.3205    0.0302    2.5193 C   0  0  0  0  0  4           0  0  0
   -0.3326   -0.0479   -2.5190 C   0  0  0  0  0  4           0  0  0
    3.5799   -5.4159    0.0283 C   0  0  0  0  0  4           0  0  0
   -0.1569    1.4528    3.0452 C   0  0  0  0  0  4           0  0  0
    0.3480    1.5447    4.4859 C   0  0  0  0  0  4           0  0  0
    0.4977    2.9785    4.9727 C   0  0  0  0  0  4           0  0  0
  1  8  1  0     0  0
  2 17  2  0     0  0
  3 18  2  0     0  0
  4 17  1  0     0  0
  5 18  1  0     0  0
  6  9  1  0     0  0
  6 10  1  0     0  0
  6 19  1  0     0  0
  7  8  1  0     0  0
  7  9  2  0     0  0
  8 10  2  0     0  0
  9 20  1  0     0  0
 10 21  1  0     0  0
 11 13  2  0     0  0
 11 14  1  0     0  0
 11 19  1  0     0  0
 12 15  2  0     0  0
 12 16  1  0     0  0
 12 22  1  0     0  0
 13 15  1  0     0  0
 14 16  2  0     0  0
 17 21  1  0     0  0
 18 22  1  0     0  0
 20 23  1  0     0  0
 23 24  1  0     0  0
 24 25  1  0     0  0
M  END
> <standard_type>
pIC50

> <# Confs.>
25

> <canonical_smiles>
CCCCC1=NC(Cl)=C(CC(O)=O)N1CC2=CC=C(CC(O)=O)C=C2

> <standard_relation>
=

> <Publication_ID>
nan

> <predicted_activity_value>
5.0

> <actual_activity_value>
4.886056647693163

> <Compound>
21

> <standard_units>
nM

> hash
15933815746296400870

$$$$
21_
XXILIB    08252103513D 0   0.00000     0.00000

 25 26  0     1  0            999 V2000
   -3.5561   -0.1021   -1.4815 Cl  0  0  0  0  0  1           0  0  0
    0.9270   -2.0720   -2.8869 O   0  0  0  0  0  2           0  0  0
    5.1412    4.7438    1.7398 O   0  0  0  0  0  2           0  0  0
   -1.2406   -1.9968   -3.5558 O   0  0  0  0  0  2           0  0  0
    5.1990    6.8843    0.9873 O   0  0  0  0  0  2           0  0  0
    0.0000    0.0000    0.0000 N   0  0  0  0  0  3           0  0  0
   -2.0838   -0.0300    0.7699 N   0  0  0  0  0  3           0  0  0
   -2.0979   -0.0532   -0.5999 C   0  0  0  0  0  4           0  0  0
   -0.8128    0.0000    1.1169 C   0  0  0  0  0  4           0  0  0
   -0.8147   -0.0368   -1.1149 C   0  0  0  0  0  4           0  0  0
    1.9917    1.3968    0.0000 C   0  0  0  0  0  4           0  0  0
    3.0400    4.0153    0.0308 C   0  0  0  0  0  4           0  0  0
    3.0443    1.7533   -0.8526 C   0  0  0  0  0  4           0  0  0
    1.4705    2.3625    0.8702 C   0  0  0  0  0  4           0  0  0
    3.5594    3.0516   -0.8419 C   0  0  0  0  0  4           0  0  0
    1.9859    3.6609    0.8815 C   0  0  0  0  0  4           0  0  0
   -0.1274   -1.4582   -2.9985 C   0  0  0  0  0  4           0  0  0
    4.7023    5.6223    1.0074 C   0  0  0  0  0  4           0  0  0
    1.4501   -0.0000    0.0000 C   0  0  0  0  0  4           0  0  0
   -0.3205    0.0302    2.5193 C   0  0  0  0  0  4           0  0  0
   -0.3326   -0.0479   -2.5190 C   0  0  0  0  0  4           0  0  0
    3.5801    5.4159    0.0280 C   0  0  0  0  0  4           0  0  0
   -0.1005   -1.3688    3.0862 C   0  0  0  0  0  4           0  0  0
    0.4068   -1.3985    4.5287 C   0  0  0  0  0  4           0  0  0
    0.6134   -2.8104    5.0569 C   0  0  0  0  0  4           0  0  0
  1  8  1  0     0  0
  2 17  2  0     0  0
  3 18  2  0     0  0
  4 17  1  0     0  0
  5 18  1  0     0  0
  6  9  1  0     0  0
  6 10  1  0     0  0
  6 19  1  0     0  0
  7  8  1  0     0  0
  7  9  2  0     0  0
  8 10  2  0     0  0
  9 20  1  0     0  0
 10 21  1  0     0  0
 11 13  2  0     0  0
 11 14  1  0     0  0
 11 19  1  0     0  0
 12 15  2  0     0  0
 12 16  1  0     0  0
 12 22  1  0     0  0
 13 15  1  0     0  0
 14 16  2  0     0  0
 17 21  1  0     0  0
 18 22  1  0     0  0
 20 23  1  0     0  0
 23 24  1  0     0  0
 24 25  1  0     0  0
M  END
> <standard_type>
pIC50

> <# Confs.>
25

> <canonical_smiles>
CCCCC1=NC(Cl)=C(CC(O)=O)N1CC2=CC=C(CC(O)=O)C=C2

> <standard_relation>
=

> <Publication_ID>
nan

> <predicted_activity_value>
5.0

> <actual_activity_value>
4.886056647693163

> <Compound>
21

> <standard_units>
nM

> hash
15933815746296400870

$$$$
21_
XXILIB    08252103513D 0   0.00000     0.00000

 25 26  0     1  0            999 V2000
   -3.5561   -0.1021   -1.4815 Cl  0  0  0  0  0  1           0  0  0
    0.5439    2.1992   -2.5496 O   0  0  0  0  0  2           0  0  0
    3.5178   -5.3598   -2.3712 O   0  0  0  0  0  2           0  0  0
   -0.9570    1.5898   -4.1393 O   0  0  0  0  0  2           0  0  0
    4.2702   -7.2368   -1.3406 O   0  0  0  0  0  2           0  0  0
    0.0000    0.0000    0.0000 N   0  0  0  0  0  3           0  0  0
   -2.0838   -0.0300    0.7699 N   0  0  0  0  0  3           0  0  0
   -2.0979   -0.0532   -0.5999 C   0  0  0  0  0  4           0  0  0
   -0.8128    0.0000    1.1169 C   0  0  0  0  0  4           0  0  0
   -0.8147   -0.0368   -1.1149 C   0  0  0  0  0  4           0  0  0
    1.9917   -1.3968    0.0000 C   0  0  0  0  0  4           0  0  0
    3.0110   -4.0265    0.0437 C   0  0  0  0  0  4           0  0  0
    1.1251   -2.4973   -0.0000 C   0  0  0  0  0  4           0  0  0
    3.3732   -1.6248    0.0249 C   0  0  0  0  0  4           0  0  0
    1.6298   -3.7996    0.0153 C   0  0  0  0  0  4           0  0  0
    3.8783   -2.9272    0.0408 C   0  0  0  0  0  4           0  0  0
   -0.1932    1.3544   -3.0434 C   0  0  0  0  0  4           0  0  0
    3.7622   -5.9791   -1.3428 C   0  0  0  0  0  4           0  0  0
    1.4501   -0.0000    0.0000 C   0  0  0  0  0  4           0  0  0
   -0.3205    0.0302    2.5193 C   0  0  0  0  0  4           0  0  0
   -0.3326   -0.0479   -2.5190 C   0  0  0  0  0  4           0  0  0
    3.5536   -5.4261    0.0398 C   0  0  0  0  0  4           0  0  0
   -0.1005   -1.3688    3.0862 C   0  0  0  0  0  4           0  0  0
    0.4068   -1.3985    4.5287 C   0  0  0  0  0  4           0  0  0
    0.6134   -2.8104    5.0569 C   0  0  0  0  0  4           0  0  0
  1  8  1  0     0  0
  2 17  2  0     0  0
  3 18  2  0     0  0
  4 17  1  0     0  0
  5 18  1  0     0  0
  6  9  1  0     0  0
  6 10  1  0     0  0
  6 19  1  0     0  0
  7  8  1  0     0  0
  7  9  2  0     0  0
  8 10  2  0     0  0
  9 20  1  0     0  0
 10 21  1  0     0  0
 11 13  2  0     0  0
 11 14  1  0     0  0
 11 19  1  0     0  0
 12 15  2  0     0  0
 12 16  1  0     0  0
 12 22  1  0     0  0
 13 15  1  0     0  0
 14 16  2  0     0  0
 17 21  1  0     0  0
 18 22  1  0     0  0
 20 23  1  0     0  0
 23 24  1  0     0  0
 24 25  1  0     0  0
M  END
> <standard_type>
pIC50

> <# Confs.>
25

> <canonical_smiles>
CCCCC1=NC(Cl)=C(CC(O)=O)N1CC2=CC=C(CC(O)=O)C=C2

> <standard_relation>
=

> <Publication_ID>
nan

> <predicted_activity_value>
5.0

> <actual_activity_value>
4.886056647693163

> <Compound>
21

> <standard_units>
nM

> hash
15933815746296400870

$$$$
21_
XXILIB    08252103513D 0   0.00000     0.00000

 25 26  0     1  0            999 V2000
   -3.5561   -0.1021   -1.4815 Cl  0  0  0  0  0  1           0  0  0
    0.1863   -2.3903   -2.2680 O   0  0  0  0  0  2           0  0  0
    3.5178    5.3598    2.3712 O   0  0  0  0  0  2           0  0  0
   -0.3438   -1.6032   -4.3297 O   0  0  0  0  0  2           0  0  0
    4.2702    7.2368    1.3406 O   0  0  0  0  0  2           0  0  0
    0.0000    0.0000    0.0000 N   0  0  0  0  0  3           0  0  0
   -2.0838   -0.0300    0.7699 N   0  0  0  0  0  3           0  0  0
   -2.0979   -0.0532   -0.5999 C   0  0  0  0  0  4           0  0  0
   -0.8128    0.0000    1.1169 C   0  0  0  0  0  4           0  0  0
   -0.8147   -0.0368   -1.1149 C   0  0  0  0  0  4           0  0  0
    1.9917    1.3968    0.0000 C   0  0  0  0  0  4           0  0  0
    3.0110    4.0265   -0.0437 C   0  0  0  0  0  4           0  0  0
    1.1251    2.4973    0.0000 C   0  0  0  0  0  4           0  0  0
    3.3732    1.6248   -0.0249 C   0  0  0  0  0  4           0  0  0
    1.6298    3.7996   -0.0153 C   0  0  0  0  0  4           0  0  0
    3.8783    2.9272   -0.0408 C   0  0  0  0  0  4           0  0  0
   -0.1274   -1.4582   -2.9985 C   0  0  0  0  0  4           0  0  0
    3.7622    5.9791    1.3428 C   0  0  0  0  0  4           0  0  0
    1.4501    0.0000   -0.0000 C   0  0  0  0  0  4           0  0  0
   -0.3205    0.0302    2.5193 C   0  0  0  0  0  4           0  0  0
   -0.3326   -0.0479   -2.5190 C   0  0  0  0  0  4           0  0  0
    3.5536    5.4261   -0.0398 C   0  0  0  0  0  4           0  0  0
   -1.0900    1.0256    3.3820 C   0  0  0  0  0  4           0  0  0
   -1.0176    2.4751    2.8997 C   0  0  0  0  0  4           0  0  0
   -1.7969    3.4357    3.7857 C   0  0  0  0  0  4           0  0  0
  1  8  1  0     0  0
  2 17  2  0     0  0
  3 18  2  0     0  0
  4 17  1  0     0  0
  5 18  1  0     0  0
  6  9  1  0     0  0
  6 10  1  0     0  0
  6 19  1  0     0  0
  7  8  1  0     0  0
  7  9  2  0     0  0
  8 10  2  0     0  0
  9 20  1  0     0  0
 10 21  1  0     0  0
 11 13  2  0     0  0
 11 14  1  0     0  0
 11 19  1  0     0  0
 12 15  2  0     0  0
 12 16  1  0     0  0
 12 22  1  0     0  0
 13 15  1  0     0  0
 14 16  2  0     0  0
 17 21  1  0     0  0
 18 22  1  0     0  0
 20 23  1  0     0  0
 23 24  1  0     0  0
 24 25  1  0     0  0
M  END
> <standard_type>
pIC50

> <# Confs.>
25

> <canonical_smiles>
CCCCC1=NC(Cl)=C(CC(O)=O)N1CC2=CC=C(CC(O)=O)C=C2

> <standard_relation>
=

> <Publication_ID>
nan

> <predicted_activity_value>
5.0

> <actual_activity_value>
4.886056647693163

> <Compound>
21

> <standard_units>
nM

> hash
15933815746296400870

$$$$
21_
XXILIB    08252103513D 0   0.00000     0.00000

 25 26  0     1  0            999 V2000
   -3.5561   -0.1021   -1.4815 Cl  0  0  0  0  0  1           0  0  0
    0.1863   -2.3903   -2.2680 O   0  0  0  0  0  2           0  0  0
    3.5178    5.3598    2.3712 O   0  0  0  0  0  2           0  0  0
   -0.3438   -1.6032   -4.3297 O   0  0  0  0  0  2           0  0  0
    4.2702    7.2368    1.3406 O   0  0  0  0  0  2           0  0  0
    0.0000    0.0000    0.0000 N   0  0  0  0  0  3           0  0  0
   -2.0838   -0.0300    0.7699 N   0  0  0  0  0  3           0  0  0
   -2.0979   -0.0532   -0.5999 C   0  0  0  0  0  4           0  0  0
   -0.8128    0.0000    1.1169 C   0  0  0  0  0  4           0  0  0
   -0.8147   -0.0368   -1.1149 C   0  0  0  0  0  4           0  0  0
    1.9917    1.3968    0.0000 C   0  0  0  0  0  4           0  0  0
    3.0110    4.0265   -0.0437 C   0  0  0  0  0  4           0  0  0
    1.1251    2.4973    0.0000 C   0  0  0  0  0  4           0  0  0
    3.3732    1.6248   -0.0249 C   0  0  0  0  0  4           0  0  0
    1.6298    3.7996   -0.0153 C   0  0  0  0  0  4           0  0  0
    3.8783    2.9272   -0.0408 C   0  0  0  0  0  4           0  0  0
   -0.1274   -1.4582   -2.9985 C   0  0  0  0  0  4           0  0  0
    3.7622    5.9791    1.3428 C   0  0  0  0  0  4           0  0  0
    1.4501    0.0000   -0.0000 C   0  0  0  0  0  4           0  0  0
   -0.3205    0.0302    2.5193 C   0  0  0  0  0  4           0  0  0
   -0.3326   -0.0479   -2.5190 C   0  0  0  0  0  4           0  0  0
    3.5536    5.4261   -0.0398 C   0  0  0  0  0  4           0  0  0
   -1.4600    0.0222    3.5335 C   0  0  0  0  0  4           0  0  0
   -1.0113    0.0524    4.9952 C   0  0  0  0  0  4           0  0  0
   -2.1758    0.0434    5.9745 C   0  0  0  0  0  4           0  0  0
  1  8  1  0     0  0
  2 17  2  0     0  0
  3 18  2  0     0  0
  4 17  1  0     0  0
  5 18  1  0     0  0
  6  9  1  0     0  0
  6 10  1  0     0  0
  6 19  1  0     0  0
  7  8  1  0     0  0
  7  9  2  0     0  0
  8 10  2  0     0  0
  9 20  1  0     0  0
 10 21  1  0     0  0
 11 13  2  0     0  0
 11 14  1  0     0  0
 11 19  1  0     0  0
 12 15  2  0     0  0
 12 16  1  0     0  0
 12 22  1  0     0  0
 13 15  1  0     0  0
 14 16  2  0     0  0
 17 21  1  0     0  0
 18 22  1  0     0  0
 20 23  1  0     0  0
 23 24  1  0     0  0
 24 25  1  0     0  0
M  END
> <standard_type>
pIC50

> <# Confs.>
25

> <canonical_smiles>
CCCCC1=NC(Cl)=C(CC(O)=O)N1CC2=CC=C(CC(O)=O)C=C2

> <standard_relation>
=

> <Publication_ID>
nan

> <predicted_activity_value>
5.0

> <actual_activity_value>
4.886056647693163

> <Compound>
21

> <standard_units>
nM

> hash
15933815746296400870

$$$$
21_
XXILIB    08252103513D 0   0.00000     0.00000

 25 26  0     1  0            999 V2000
   -3.5561   -0.1021   -1.4815 Cl  0  0  0  0  0  1           0  0  0
    0.6480   -2.2515   -2.4786 O   0  0  0  0  0  2           0  0  0
    5.1534    4.7391   -1.7267 O   0  0  0  0  0  2           0  0  0
   -0.9063   -1.7758   -4.0626 O   0  0  0  0  0  2           0  0  0
    5.1808    6.8914   -1.0069 O   0  0  0  0  0  2           0  0  0
    0.0000    0.0000    0.0000 N   0  0  0  0  0  3           0  0  0
   -2.0838   -0.0300    0.7699 N   0  0  0  0  0  3           0  0  0
   -2.0979   -0.0532   -0.5999 C   0  0  0  0  0  4           0  0  0
   -0.8128    0.0000    1.1169 C   0  0  0  0  0  4           0  0  0
   -0.8147   -0.0368   -1.1149 C   0  0  0  0  0  4           0  0  0
    1.9917    1.3968    0.0000 C   0  0  0  0  0  4           0  0  0
    3.0399    4.0154   -0.0310 C   0  0  0  0  0  4           0  0  0
    1.4544    2.3697   -0.8526 C   0  0  0  0  0  4           0  0  0
    3.0604    1.7461    0.8349 C   0  0  0  0  0  4           0  0  0
    1.9692    3.6680   -0.8635 C   0  0  0  0  0  4           0  0  0
    3.5759    3.0445    0.8238 C   0  0  0  0  0  4           0  0  0
   -0.1274   -1.4582   -2.9985 C   0  0  0  0  0  4           0  0  0
    4.7092    5.6196   -0.9999 C   0  0  0  0  0  4           0  0  0
    1.4501   -0.0000   -0.0000 C   0  0  0  0  0  4           0  0  0
   -0.3205    0.0302    2.5193 C   0  0  0  0  0  4           0  0  0
   -0.3326   -0.0479   -2.5190 C   0  0  0  0  0  4           0  0  0
    3.5799    5.4159   -0.0283 C   0  0  0  0  0  4           0  0  0
   -0.1005   -1.3688    3.0862 C   0  0  0  0  0  4           0  0  0
   -1.3525   -2.2465    3.1190 C   0  0  0  0  0  4           0  0  0
   -1.0918   -3.6323    3.6906 C   0  0  0  0  0  4           0  0  0
  1  8  1  0     0  0
  2 17  2  0     0  0
  3 18  2  0     0  0
  4 17  1  0     0  0
  5 18  1  0     0  0
  6  9  1  0     0  0
  6 10  1  0     0  0
  6 19  1  0     0  0
  7  8  1  0     0  0
  7  9  2  0     0  0
  8 10  2  0     0  0
  9 20  1  0     0  0
 10 21  1  0     0  0
 11 13  2  0     0  0
 11 14  1  0     0  0
 11 19  1  0     0  0
 12 15  2  0     0  0
 12 16  1  0     0  0
 12 22  1  0     0  0
 13 15  1  0     0  0
 14 16  2  0     0  0
 17 21  1  0     0  0
 18 22  1  0     0  0
 20 23  1  0     0  0
 23 24  1  0     0  0
 24 25  1  0     0  0
M  END
> <standard_type>
pIC50

> <# Confs.>
25

> <canonical_smiles>
CCCCC1=NC(Cl)=C(CC(O)=O)N1CC2=CC=C(CC(O)=O)C=C2

> <standard_relation>
=

> <Publication_ID>
nan

> <predicted_activity_value>
5.0

> <actual_activity_value>
4.886056647693163

> <Compound>
21

> <standard_units>
nM

> hash
15933815746296400870

$$$$
21_
XXILIB    08252103513D 0   0.00000     0.00000

 25 26  0     1  0            999 V2000
   -3.5561   -0.1021   -1.4815 Cl  0  0  0  0  0  1           0  0  0
    0.0761    2.3229   -2.3431 O   0  0  0  0  0  2           0  0  0
    1.9571   -5.9649   -1.6699 O   0  0  0  0  0  2           0  0  0
   -0.3781    1.4406   -4.3844 O   0  0  0  0  0  2           0  0  0
    3.3827   -7.5809   -0.9574 O   0  0  0  0  0  2           0  0  0
    0.0000    0.0000    0.0000 N   0  0  0  0  0  3           0  0  0
   -2.0838   -0.0300    0.7699 N   0  0  0  0  0  3           0  0  0
   -2.0979   -0.0532   -0.5999 C   0  0  0  0  0  4           0  0  0
   -0.8128    0.0000    1.1169 C   0  0  0  0  0  4           0  0  0
   -0.8147   -0.0368   -1.1149 C   0  0  0  0  0  4           0  0  0
    1.9917   -1.3968   -0.0000 C   0  0  0  0  0  4           0  0  0
    3.0399   -4.0154    0.0310 C   0  0  0  0  0  4           0  0  0
    1.4544   -2.3697    0.8526 C   0  0  0  0  0  4           0  0  0
    3.0604   -1.7461   -0.8349 C   0  0  0  0  0  4           0  0  0
    1.9692   -3.6680    0.8635 C   0  0  0  0  0  4           0  0  0
    3.5759   -3.0445   -0.8238 C   0  0  0  0  0  4           0  0  0
   -0.1932    1.3544   -3.0434 C   0  0  0  0  0  4           0  0  0
    2.8784   -6.3217   -0.9456 C   0  0  0  0  0  4           0  0  0
    1.4501    0.0000    0.0000 C   0  0  0  0  0  4           0  0  0
   -0.3205    0.0302    2.5193 C   0  0  0  0  0  4           0  0  0
   -0.3326   -0.0479   -2.5190 C   0  0  0  0  0  4           0  0  0
    3.5799   -5.4159    0.0283 C   0  0  0  0  0  4           0  0  0
   -1.0900    1.0256    3.3820 C   0  0  0  0  0  4           0  0  0
   -1.0176    2.4751    2.8997 C   0  0  0  0  0  4           0  0  0
   -1.7969    3.4357    3.7857 C   0  0  0  0  0  4           0  0  0
  1  8  1  0     0  0
  2 17  2  0     0  0
  3 18  2  0     0  0
  4 17  1  0     0  0
  5 18  1  0     0  0
  6  9  1  0     0  0
  6 10  1  0     0  0
  6 19  1  0     0  0
  7  8  1  0     0  0
  7  9  2  0     0  0
  8 10  2  0     0  0
  9 20  1  0     0  0
 10 21  1  0     0  0
 11 13  2  0     0  0
 11 14  1  0     0  0
 11 19  1  0     0  0
 12 15  2  0     0  0
 12 16  1  0     0  0
 12 22  1  0     0  0
 13 15  1  0     0  0
 14 16  2  0     0  0
 17 21  1  0     0  0
 18 22  1  0     0  0
 20 23  1  0     0  0
 23 24  1  0     0  0
 24 25  1  0     0  0
M  END
> <standard_type>
pIC50

> <# Confs.>
25

> <canonical_smiles>
CCCCC1=NC(Cl)=C(CC(O)=O)N1CC2=CC=C(CC(O)=O)C=C2

> <standard_relation>
=

> <Publication_ID>
nan

> <predicted_activity_value>
5.0

> <actual_activity_value>
4.886056647693163

> <Compound>
21

> <standard_units>
nM

> hash
15933815746296400870

$$$$
21_
XXILIB    08252103513D 0   0.00000     0.00000

 25 26  0     1  0            999 V2000
   -3.5561   -0.1021   -1.4815 Cl  0  0  0  0  0  1           0  0  0
    0.1863   -2.3903   -2.2680 O   0  0  0  0  0  2           0  0  0
    3.5178    5.3598    2.3712 O   0  0  0  0  0  2           0  0  0
   -0.3438   -1.6032   -4.3297 O   0  0  0  0  0  2           0  0  0
    4.2702    7.2368    1.3406 O   0  0  0  0  0  2           0  0  0
    0.0000    0.0000    0.0000 N   0  0  0  0  0  3           0  0  0
   -2.0838   -0.0300    0.7699 N   0  0  0  0  0  3           0  0  0
   -2.0979   -0.0532   -0.5999 C   0  0  0  0  0  4           0  0  0
   -0.8128    0.0000    1.1169 C   0  0  0  0  0  4           0  0  0
   -0.8147   -0.0368   -1.1149 C   0  0  0  0  0  4           0  0  0
    1.9917    1.3968    0.0000 C   0  0  0  0  0  4           0  0  0
    3.0110    4.0265   -0.0437 C   0  0  0  0  0  4           0  0  0
    1.1251    2.4973    0.0000 C   0  0  0  0  0  4           0  0  0
    3.3732    1.6248   -0.0249 C   0  0  0  0  0  4           0  0  0
    1.6298    3.7996   -0.0153 C   0  0  0  0  0  4           0  0  0
    3.8783    2.9272   -0.0408 C   0  0  0  0  0  4           0  0  0
   -0.1274   -1.4582   -2.9985 C   0  0  0  0  0  4           0  0  0
    3.7622    5.9791    1.3428 C   0  0  0  0  0  4           0  0  0
    1.4501    0.0000   -0.0000 C   0  0  0  0  0  4           0  0  0
   -0.3205    0.0302    2.5193 C   0  0  0  0  0  4           0  0  0
   -0.3326   -0.0479   -2.5190 C   0  0  0  0  0  4           0  0  0
    3.5536    5.4261   -0.0398 C   0  0  0  0  0  4           0  0  0
   -0.1005   -1.3688    3.0862 C   0  0  0  0  0  4           0  0  0
    0.4068   -1.3985    4.5287 C   0  0  0  0  0  4           0  0  0
    1.7435   -0.6929    4.7031 C   0  0  0  0  0  4           0  0  0
  1  8  1  0     0  0
  2 17  2  0     0  0
  3 18  2  0     0  0
  4 17  1  0     0  0
  5 18  1  0     0  0
  6  9  1  0     0  0
  6 10  1  0     0  0
  6 19  1  0     0  0
  7  8  1  0     0  0
  7  9  2  0     0  0
  8 10  2  0     0  0
  9 20  1  0     0  0
 10 21  1  0     0  0
 11 13  2  0     0  0
 11 14  1  0     0  0
 11 19  1  0     0  0
 12 15  2  0     0  0
 12 16  1  0     0  0
 12 22  1  0     0  0
 13 15  1  0     0  0
 14 16  2  0     0  0
 17 21  1  0     0  0
 18 22  1  0     0  0
 20 23  1  0     0  0
 23 24  1  0     0  0
 24 25  1  0     0  0
M  END
> <standard_type>
pIC50

> <# Confs.>
25

> <canonical_smiles>
CCCCC1=NC(Cl)=C(CC(O)=O)N1CC2=CC=C(CC(O)=O)C=C2

> <standard_relation>
=

> <Publication_ID>
nan

> <predicted_activity_value>
5.0

> <actual_activity_value>
4.886056647693163

> <Compound>
21

> <standard_units>
nM

> hash
15933815746296400870

$$$$
21_
XXILIB    08252103513D 0   0.00000     0.00000

 25 26  0     1  0            999 V2000
   -3.5561   -0.1021   -1.4815 Cl  0  0  0  0  0  1           0  0  0
   -0.4469    2.3580   -2.3883 O   0  0  0  0  0  2           0  0  0
    3.5178   -5.3598   -2.3712 O   0  0  0  0  0  2           0  0  0
    0.2636    1.4010   -4.3197 O   0  0  0  0  0  2           0  0  0
    4.2702   -7.2368   -1.3406 O   0  0  0  0  0  2           0  0  0
    0.0000    0.0000    0.0000 N   0  0  0  0  0  3           0  0  0
   -2.0838   -0.0300    0.7699 N   0  0  0  0  0  3           0  0  0
   -2.0979   -0.0532   -0.5999 C   0  0  0  0  0  4           0  0  0
   -0.8128    0.0000    1.1169 C   0  0  0  0  0  4           0  0  0
   -0.8147   -0.0368   -1.1149 C   0  0  0  0  0  4           0  0  0
    1.9917   -1.3968    0.0000 C   0  0  0  0  0  4           0  0  0
    3.0110   -4.0265    0.0437 C   0  0  0  0  0  4           0  0  0
    1.1251   -2.4973   -0.0000 C   0  0  0  0  0  4           0  0  0
    3.3732   -1.6248    0.0249 C   0  0  0  0  0  4           0  0  0
    1.6298   -3.7996    0.0153 C   0  0  0  0  0  4           0  0  0
    3.8783   -2.9272    0.0408 C   0  0  0  0  0  4           0  0  0
   -0.1932    1.3544   -3.0434 C   0  0  0  0  0  4           0  0  0
    3.7622   -5.9791   -1.3428 C   0  0  0  0  0  4           0  0  0
    1.4501   -0.0000    0.0000 C   0  0  0  0  0  4           0  0  0
   -0.3205    0.0302    2.5193 C   0  0  0  0  0  4           0  0  0
   -0.3326   -0.0479   -2.5190 C   0  0  0  0  0  4           0  0  0
    3.5536   -5.4261    0.0398 C   0  0  0  0  0  4           0  0  0
   -0.1569    1.4528    3.0452 C   0  0  0  0  0  4           0  0  0
    0.3480    1.5447    4.4859 C   0  0  0  0  0  4           0  0  0
    1.7117    0.8984    4.6799 C   0  0  0  0  0  4           0  0  0
  1  8  1  0     0  0
  2 17  2  0     0  0
  3 18  2  0     0  0
  4 17  1  0     0  0
  5 18  1  0     0  0
  6  9  1  0     0  0
  6 10  1  0     0  0
  6 19  1  0     0  0
  7  8  1  0     0  0
  7  9  2  0     0  0
  8 10  2  0     0  0
  9 20  1  0     0  0
 10 21  1  0     0  0
 11 13  2  0     0  0
 11 14  1  0     0  0
 11 19  1  0     0  0
 12 15  2  0     0  0
 12 16  1  0     0  0
 12 22  1  0     0  0
 13 15  1  0     0  0
 14 16  2  0     0  0
 17 21  1  0     0  0
 18 22  1  0     0  0
 20 23  1  0     0  0
 23 24  1  0     0  0
 24 25  1  0     0  0
M  END
> <standard_type>
pIC50

> <# Confs.>
25

> <canonical_smiles>
CCCCC1=NC(Cl)=C(CC(O)=O)N1CC2=CC=C(CC(O)=O)C=C2

> <standard_relation>
=

> <Publication_ID>
nan

> <predicted_activity_value>
5.0

> <actual_activity_value>
4.886056647693163

> <Compound>
21

> <standard_units>
nM

> hash
15933815746296400870

$$$$
21_
XXILIB    08252103513D 0   0.00000     0.00000

 25 26  0     1  0            999 V2000
   -3.5561   -0.1021   -1.4815 Cl  0  0  0  0  0  1           0  0  0
    0.0761    2.3229   -2.3431 O   0  0  0  0  0  2           0  0  0
    1.9571   -5.9649   -1.6699 O   0  0  0  0  0  2           0  0  0
   -0.3781    1.4406   -4.3844 O   0  0  0  0  0  2           0  0  0
    3.3827   -7.5809   -0.9574 O   0  0  0  0  0  2           0  0  0
    0.0000    0.0000    0.0000 N   0  0  0  0  0  3           0  0  0
   -2.0838   -0.0300    0.7699 N   0  0  0  0  0  3           0  0  0
   -2.0979   -0.0532   -0.5999 C   0  0  0  0  0  4           0  0  0
   -0.8128    0.0000    1.1169 C   0  0  0  0  0  4           0  0  0
   -0.8147   -0.0368   -1.1149 C   0  0  0  0  0  4           0  0  0
    1.9917   -1.3968   -0.0000 C   0  0  0  0  0  4           0  0  0
    3.0399   -4.0154    0.0310 C   0  0  0  0  0  4           0  0  0
    1.4544   -2.3697    0.8526 C   0  0  0  0  0  4           0  0  0
    3.0604   -1.7461   -0.8349 C   0  0  0  0  0  4           0  0  0
    1.9692   -3.6680    0.8635 C   0  0  0  0  0  4           0  0  0
    3.5759   -3.0445   -0.8238 C   0  0  0  0  0  4           0  0  0
   -0.1932    1.3544   -3.0434 C   0  0  0  0  0  4           0  0  0
    2.8784   -6.3217   -0.9456 C   0  0  0  0  0  4           0  0  0
    1.4501    0.0000    0.0000 C   0  0  0  0  0  4           0  0  0
   -0.3205    0.0302    2.5193 C   0  0  0  0  0  4           0  0  0
   -0.3326   -0.0479   -2.5190 C   0  0  0  0  0  4           0  0  0
    3.5799   -5.4159    0.0283 C   0  0  0  0  0  4           0  0  0
   -1.0501   -0.9696    3.4110 C   0  0  0  0  0  4           0  0  0
   -0.5838   -0.9821    4.8675 C   0  0  0  0  0  4           0  0  0
   -1.3349   -1.9914    5.7231 C   0  0  0  0  0  4           0  0  0
  1  8  1  0     0  0
  2 17  2  0     0  0
  3 18  2  0     0  0
  4 17  1  0     0  0
  5 18  1  0     0  0
  6  9  1  0     0  0
  6 10  1  0     0  0
  6 19  1  0     0  0
  7  8  1  0     0  0
  7  9  2  0     0  0
  8 10  2  0     0  0
  9 20  1  0     0  0
 10 21  1  0     0  0
 11 13  2  0     0  0
 11 14  1  0     0  0
 11 19  1  0     0  0
 12 15  2  0     0  0
 12 16  1  0     0  0
 12 22  1  0     0  0
 13 15  1  0     0  0
 14 16  2  0     0  0
 17 21  1  0     0  0
 18 22  1  0     0  0
 20 23  1  0     0  0
 23 24  1  0     0  0
 24 25  1  0     0  0
M  END
> <standard_type>
pIC50

> <# Confs.>
25

> <canonical_smiles>
CCCCC1=NC(Cl)=C(CC(O)=O)N1CC2=CC=C(CC(O)=O)C=C2

> <standard_relation>
=

> <Publication_ID>
nan

> <predicted_activity_value>
5.0

> <actual_activity_value>
4.886056647693163

> <Compound>
21

> <standard_units>
nM

> hash
15933815746296400870

$$$$
21_
XXILIB    08252103513D 0   0.00000     0.00000

 25 26  0     1  0            999 V2000
   -3.5561   -0.1021   -1.4815 Cl  0  0  0  0  0  1           0  0  0
    0.0761    2.3229   -2.3431 O   0  0  0  0  0  2           0  0  0
    3.2267   -6.4750   -2.1100 O   0  0  0  0  0  2           0  0  0
   -0.3781    1.4406   -4.3844 O   0  0  0  0  0  2           0  0  0
    1.8223   -6.9737   -0.3982 O   0  0  0  0  0  2           0  0  0
    0.0000    0.0000    0.0000 N   0  0  0  0  0  3           0  0  0
   -2.0838   -0.0300    0.7699 N   0  0  0  0  0  3           0  0  0
   -2.0979   -0.0532   -0.5999 C   0  0  0  0  0  4           0  0  0
   -0.8128    0.0000    1.1169 C   0  0  0  0  0  4           0  0  0
   -0.8147   -0.0368   -1.1149 C   0  0  0  0  0  4           0  0  0
    1.9917   -1.3968   -0.0000 C   0  0  0  0  0  4           0  0  0
    3.0399   -4.0154    0.0310 C   0  0  0  0  0  4           0  0  0
    1.4544   -2.3697    0.8526 C   0  0  0  0  0  4           0  0  0
    3.0604   -1.7461   -0.8349 C   0  0  0  0  0  4           0  0  0
    1.9692   -3.6680    0.8635 C   0  0  0  0  0  4           0  0  0
    3.5759   -3.0445   -0.8238 C   0  0  0  0  0  4           0  0  0
   -0.1932    1.3544   -3.0434 C   0  0  0  0  0  4           0  0  0
    2.8784   -6.3217   -0.9456 C   0  0  0  0  0  4           0  0  0
    1.4501    0.0000    0.0000 C   0  0  0  0  0  4           0  0  0
   -0.3205    0.0302    2.5193 C   0  0  0  0  0  4           0  0  0
   -0.3326   -0.0479   -2.5190 C   0  0  0  0  0  4           0  0  0
    3.5799   -5.4159    0.0283 C   0  0  0  0  0  4           0  0  0
   -0.1569    1.4528    3.0452 C   0  0  0  0  0  4           0  0  0
   -1.4429    2.2804    3.0532 C   0  0  0  0  0  4           0  0  0
   -1.2382    3.6915    3.5840 C   0  0  0  0  0  4           0  0  0
  1  8  1  0     0  0
  2 17  2  0     0  0
  3 18  2  0     0  0
  4 17  1  0     0  0
  5 18  1  0     0  0
  6  9  1  0     0  0
  6 10  1  0     0  0
  6 19  1  0     0  0
  7  8  1  0     0  0
  7  9  2  0     0  0
  8 10  2  0     0  0
  9 20  1  0     0  0
 10 21  1  0     0  0
 11 13  2  0     0  0
 11 14  1  0     0  0
 11 19  1  0     0  0
 12 15  2  0     0  0
 12 16  1  0     0  0
 12 22  1  0     0  0
 13 15  1  0     0  0
 14 16  2  0     0  0
 17 21  1  0     0  0
 18 22  1  0     0  0
 20 23  1  0     0  0
 23 24  1  0     0  0
 24 25  1  0     0  0
M  END
> <standard_type>
pIC50

> <# Confs.>
25

> <canonical_smiles>
CCCCC1=NC(Cl)=C(CC(O)=O)N1CC2=CC=C(CC(O)=O)C=C2

> <standard_relation>
=

> <Publication_ID>
nan

> <predicted_activity_value>
5.0

> <actual_activity_value>
4.886056647693163

> <Compound>
21

> <standard_units>
nM

> hash
15933815746296400870

$$$$
21_
XXILIB    08252103513D 0   0.00000     0.00000

 25 26  0     1  0            999 V2000
   -3.5561   -0.1021   -1.4815 Cl  0  0  0  0  0  1           0  0  0
    0.0761    2.3229   -2.3431 O   0  0  0  0  0  2           0  0  0
    5.1534   -4.7391    1.7267 O   0  0  0  0  0  2           0  0  0
   -0.3781    1.4406   -4.3844 O   0  0  0  0  0  2           0  0  0
    5.1808   -6.8914    1.0069 O   0  0  0  0  0  2           0  0  0
    0.0000    0.0000    0.0000 N   0  0  0  0  0  3           0  0  0
   -2.0838   -0.0300    0.7699 N   0  0  0  0  0  3           0  0  0
   -2.0979   -0.0532   -0.5999 C   0  0  0  0  0  4           0  0  0
   -0.8128    0.0000    1.1169 C   0  0  0  0  0  4           0  0  0
   -0.8147   -0.0368   -1.1149 C   0  0  0  0  0  4           0  0  0
    1.9917   -1.3968   -0.0000 C   0  0  0  0  0  4           0  0  0
    3.0399   -4.0154    0.0310 C   0  0  0  0  0  4           0  0  0
    1.4544   -2.3697    0.8526 C   0  0  0  0  0  4           0  0  0
    3.0604   -1.7461   -0.8349 C   0  0  0  0  0  4           0  0  0
    1.9692   -3.6680    0.8635 C   0  0  0  0  0  4           0  0  0
    3.5759   -3.0445   -0.8238 C   0  0  0  0  0  4           0  0  0
   -0.1932    1.3544   -3.0434 C   0  0  0  0  0  4           0  0  0
    4.7092   -5.6196    0.9999 C   0  0  0  0  0  4           0  0  0
    1.4501    0.0000    0.0000 C   0  0  0  0  0  4           0  0  0
   -0.3205    0.0302    2.5193 C   0  0  0  0  0  4           0  0  0
   -0.3326   -0.0479   -2.5190 C   0  0  0  0  0  4           0  0  0
    3.5799   -5.4159    0.0283 C   0  0  0  0  0  4           0  0  0
   -1.0900    1.0256    3.3820 C   0  0  0  0  0  4           0  0  0
   -1.0176    2.4751    2.8997 C   0  0  0  0  0  4           0  0  0
   -1.7969    3.4357    3.7857 C   0  0  0  0  0  4           0  0  0
  1  8  1  0     0  0
  2 17  2  0     0  0
  3 18  2  0     0  0
  4 17  1  0     0  0
  5 18  1  0     0  0
  6  9  1  0     0  0
  6 10  1  0     0  0
  6 19  1  0     0  0
  7  8  1  0     0  0
  7  9  2  0     0  0
  8 10  2  0     0  0
  9 20  1  0     0  0
 10 21  1  0     0  0
 11 13  2  0     0  0
 11 14  1  0     0  0
 11 19  1  0     0  0
 12 15  2  0     0  0
 12 16  1  0     0  0
 12 22  1  0     0  0
 13 15  1  0     0  0
 14 16  2  0     0  0
 17 21  1  0     0  0
 18 22  1  0     0  0
 20 23  1  0     0  0
 23 24  1  0     0  0
 24 25  1  0     0  0
M  END
> <standard_type>
pIC50

> <# Confs.>
25

> <canonical_smiles>
CCCCC1=NC(Cl)=C(CC(O)=O)N1CC2=CC=C(CC(O)=O)C=C2

> <standard_relation>
=

> <Publication_ID>
nan

> <predicted_activity_value>
5.0

> <actual_activity_value>
4.886056647693163

> <Compound>
21

> <standard_units>
nM

> hash
15933815746296400870

$$$$
3_
XXILIB    08252103513D 0   0.00000     0.00000

 30 33  0     1  0            999 V2000
    5.3113    1.6775   -0.1422 I   0  0  0  0  0  1           0  0  0
    1.6464    2.9455    1.2939 O   0  0  0  0  0  2           0  0  0
   -5.3910   -1.4412    2.9777 N   0  0  0  0  0  3           0  0  0
   -5.3189   -2.5916    3.6333 N   0  0  0  0  0  3           0  0  0
   -4.6472   -0.5866    3.6928 N   0  0  0  0  0  3           0  0  0
   -4.5362   -2.4722    4.7581 N   0  0  0  0  0  3           0  0  0
    1.4524   -0.0000    0.0000 N   0  0  0  0  0  3           0  0  0
    3.5360   -0.7717   -0.0359 N   0  0  0  0  0  3           0  0  0
    3.5433    0.5951   -0.0627 C   0  0  0  0  0  4           0  0  0
   -4.1215   -1.2207    4.7857 C   0  0  0  0  0  4           0  0  0
    2.2650   -1.1177    0.0000 C   0  0  0  0  0  4           0  0  0
    2.2657    1.1179   -0.0387 C   0  0  0  0  0  4           0  0  0
   -3.2747   -0.5838    5.7647 C   0  0  0  0  0  4           0  0  0
   -2.0364    0.0012    5.4141 C   0  0  0  0  0  4           0  0  0
   -1.5275    0.0005    4.0481 C   0  0  0  0  0  4           0  0  0
   -0.5412    0.0000    1.3973 C   0  0  0  0  0  4           0  0  0
   -3.7044   -0.5629    7.1019 C   0  0  0  0  0  4           0  0  0
   -1.2671    0.6012    6.4297 C   0  0  0  0  0  4           0  0  0
   -1.2884   -1.2046    3.3712 C   0  0  0  0  0  4           0  0  0
   -1.2624    1.2052    3.3807 C   0  0  0  0  0  4           0  0  0
   -0.7987   -1.2048    2.0620 C   0  0  0  0  0  4           0  0  0
   -0.7726    1.2049    2.0716 C   0  0  0  0  0  4           0  0  0
   -2.9250    0.0369    8.0896 C   0  0  0  0  0  4           0  0  0
   -1.7078    0.6199    7.7539 C   0  0  0  0  0  4           0  0  0
    1.7647    2.5088   -0.0532 C   0  0  0  0  0  4           0  0  0
    0.0000   -0.0000    0.0000 C   0  0  0  0  0  4           0  0  0
    1.7706   -2.5209    0.0365 C   0  0  0  0  0  4           0  0  0
    2.5073   -3.3979   -0.9697 C   0  0  0  0  0  4           0  0  0
    2.0481   -4.8566   -0.9855 C   0  0  0  0  0  4           0  0  0
    2.8031   -5.7027   -1.9999 C   0  0  0  0  0  4           0  0  0
  1  9  1  0     0  0
  2 25  1  0     0  0
  3  4  2  0     0  0
  3  5  1  0     0  0
  4  6  1  0     0  0
  5 10  1  0     0  0
  6 10  2  0     0  0
  7 11  1  0     0  0
  7 12  1  0     0  0
  7 26  1  0     0  0
  8  9  1  0     0  0
  8 11  2  0     0  0
  9 12  2  0     0  0
 10 13  1  0     0  0
 11 27  1  0     0  0
 12 25  1  0     0  0
 13 14  1  0     0  0
 13 17  2  0     0  0
 14 15  1  0     0  0
 14 18  2  0     0  0
 15 19  2  0     0  0
 15 20  1  0     0  0
 16 21  2  0     0  0
 16 22  1  0     0  0
 16 26  1  0     0  0
 17 23  1  0     0  0
 18 24  1  0     0  0
 19 21  1  0     0  0
 20 22  2  0     0  0
 23 24  2  0     0  0
 27 28  1  0     0  0
 28 29  1  0     0  0
 29 30  1  0     0  0
M  END
> <standard_type>
pIC50

> <# Confs.>
25

> <canonical_smiles>
IC(N=C1CCCC)=C(CO)N1CC2=CC=C(C3=CC=CC=C3C4=NN=NN4)C=C2

> <standard_relation>
=

> <Publication_ID>
nan

> <predicted_activity_value>
7.6777807052660805

> <actual_activity_value>
7.698970004336019

> <Compound>
3

> <standard_units>
nM

> hash
15855483879499829441

$$$$
3_
XXILIB    08252103513D 0   0.00000     0.00000

 30 33  0     1  0            999 V2000
    5.3113    1.6775   -0.1422 I   0  0  0  0  0  1           0  0  0
    1.6464    2.9455    1.2939 O   0  0  0  0  0  2           0  0  0
    2.0595   -1.5386    5.7448 N   0  0  0  0  0  3           0  0  0
    1.5495   -2.6808    6.1847 N   0  0  0  0  0  3           0  0  0
    1.0508   -0.6594    5.8109 N   0  0  0  0  0  3           0  0  0
    0.2258   -2.5322    6.5281 N   0  0  0  0  0  3           0  0  0
    1.4524   -0.0000    0.0000 N   0  0  0  0  0  3           0  0  0
    3.5360   -0.7717   -0.0359 N   0  0  0  0  0  3           0  0  0
    3.5433    0.5951   -0.0627 C   0  0  0  0  0  4           0  0  0
   -0.0750   -1.2699    6.2931 C   0  0  0  0  0  4           0  0  0
    2.2650   -1.1177    0.0000 C   0  0  0  0  0  4           0  0  0
    2.2657    1.1179   -0.0387 C   0  0  0  0  0  4           0  0  0
   -1.3406   -0.6047    6.4852 C   0  0  0  0  0  4           0  0  0
   -2.0364    0.0012    5.4141 C   0  0  0  0  0  4           0  0  0
   -1.5275    0.0005    4.0481 C   0  0  0  0  0  4           0  0  0
   -0.5412    0.0000    1.3973 C   0  0  0  0  0  4           0  0  0
   -1.8769   -0.5587    7.7827 C   0  0  0  0  0  4           0  0  0
   -3.2654    0.6330    5.6853 C   0  0  0  0  0  4           0  0  0
   -1.2884   -1.2046    3.3712 C   0  0  0  0  0  4           0  0  0
   -1.2624    1.2052    3.3807 C   0  0  0  0  0  4           0  0  0
   -0.7987   -1.2048    2.0620 C   0  0  0  0  0  4           0  0  0
   -0.7726    1.2049    2.0716 C   0  0  0  0  0  4           0  0  0
   -3.0953    0.0729    8.0261 C   0  0  0  0  0  4           0  0  0
   -3.7901    0.6672    6.9782 C   0  0  0  0  0  4           0  0  0
    1.7647    2.5088   -0.0532 C   0  0  0  0  0  4           0  0  0
    0.0000    0.0000    0.0000 C   0  0  0  0  0  4           0  0  0
    1.7706   -2.5209    0.0365 C   0  0  0  0  0  4           0  0  0
    2.5073   -3.3979   -0.9697 C   0  0  0  0  0  4           0  0  0
    2.0481   -4.8566   -0.9855 C   0  0  0  0  0  4           0  0  0
    2.8031   -5.7027   -1.9999 C   0  0  0  0  0  4           0  0  0
  1  9  1  0     0  0
  2 25  1  0     0  0
  3  4  2  0     0  0
  3  5  1  0     0  0
  4  6  1  0     0  0
  5 10  1  0     0  0
  6 10  2  0     0  0
  7 11  1  0     0  0
  7 12  1  0     0  0
  7 26  1  0     0  0
  8  9  1  0     0  0
  8 11  2  0     0  0
  9 12  2  0     0  0
 10 13  1  0     0  0
 11 27  1  0     0  0
 12 25  1  0     0  0
 13 14  1  0     0  0
 13 17  2  0     0  0
 14 15  1  0     0  0
 14 18  2  0     0  0
 15 19  2  0     0  0
 15 20  1  0     0  0
 16 21  2  0     0  0
 16 22  1  0     0  0
 16 26  1  0     0  0
 17 23  1  0     0  0
 18 24  1  0     0  0
 19 21  1  0     0  0
 20 22  2  0     0  0
 23 24  2  0     0  0
 27 28  1  0     0  0
 28 29  1  0     0  0
 29 30  1  0     0  0
M  END
> <standard_type>
pIC50

> <# Confs.>
25

> <canonical_smiles>
IC(N=C1CCCC)=C(CO)N1CC2=CC=C(C3=CC=CC=C3C4=NN=NN4)C=C2

> <standard_relation>
=

> <Publication_ID>
nan

> <predicted_activity_value>
7.6777807052660805

> <actual_activity_value>
7.698970004336019

> <Compound>
3

> <standard_units>
nM

> hash
15855483879499829441

$$$$
3_
XXILIB    08252103513D 0   0.00000     0.00000

 30 33  0     1  0            999 V2000
    5.3113    1.6775   -0.1422 I   0  0  0  0  0  1           0  0  0
    1.6464    2.9455    1.2939 O   0  0  0  0  0  2           0  0  0
   -5.3910   -1.4412    2.9777 N   0  0  0  0  0  3           0  0  0
   -5.3189   -2.5916    3.6333 N   0  0  0  0  0  3           0  0  0
   -4.6472   -0.5866    3.6928 N   0  0  0  0  0  3           0  0  0
   -4.5362   -2.4722    4.7581 N   0  0  0  0  0  3           0  0  0
    1.4524   -0.0000    0.0000 N   0  0  0  0  0  3           0  0  0
    3.5360   -0.7717   -0.0359 N   0  0  0  0  0  3           0  0  0
    3.5433    0.5951   -0.0627 C   0  0  0  0  0  4           0  0  0
   -4.1215   -1.2207    4.7857 C   0  0  0  0  0  4           0  0  0
    2.2650   -1.1177    0.0000 C   0  0  0  0  0  4           0  0  0
    2.2657    1.1179   -0.0387 C   0  0  0  0  0  4           0  0  0
   -3.2747   -0.5838    5.7647 C   0  0  0  0  0  4           0  0  0
   -2.0364    0.0012    5.4141 C   0  0  0  0  0  4           0  0  0
   -1.5275    0.0005    4.0481 C   0  0  0  0  0  4           0  0  0
   -0.5412    0.0000    1.3973 C   0  0  0  0  0  4           0  0  0
   -3.7044   -0.5629    7.1019 C   0  0  0  0  0  4           0  0  0
   -1.2671    0.6012    6.4297 C   0  0  0  0  0  4           0  0  0
   -1.2884   -1.2046    3.3712 C   0  0  0  0  0  4           0  0  0
   -1.2624    1.2052    3.3807 C   0  0  0  0  0  4           0  0  0
   -0.7987   -1.2048    2.0620 C   0  0  0  0  0  4           0  0  0
   -0.7726    1.2049    2.0716 C   0  0  0  0  0  4           0  0  0
   -2.9250    0.0369    8.0896 C   0  0  0  0  0  4           0  0  0
   -1.7078    0.6199    7.7539 C   0  0  0  0  0  4           0  0  0
    1.7647    2.5088   -0.0532 C   0  0  0  0  0  4           0  0  0
    0.0000   -0.0000    0.0000 C   0  0  0  0  0  4           0  0  0
    1.7706   -2.5209    0.0365 C   0  0  0  0  0  4           0  0  0
    2.5073   -3.3979   -0.9697 C   0  0  0  0  0  4           0  0  0
    2.3660   -2.9410   -2.4224 C   0  0  0  0  0  4           0  0  0
    3.1127   -3.8374   -3.3989 C   0  0  0  0  0  4           0  0  0
  1  9  1  0     0  0
  2 25  1  0     0  0
  3  4  2  0     0  0
  3  5  1  0     0  0
  4  6  1  0     0  0
  5 10  1  0     0  0
  6 10  2  0     0  0
  7 11  1  0     0  0
  7 12  1  0     0  0
  7 26  1  0     0  0
  8  9  1  0     0  0
  8 11  2  0     0  0
  9 12  2  0     0  0
 10 13  1  0     0  0
 11 27  1  0     0  0
 12 25  1  0     0  0
 13 14  1  0     0  0
 13 17  2  0     0  0
 14 15  1  0     0  0
 14 18  2  0     0  0
 15 19  2  0     0  0
 15 20  1  0     0  0
 16 21  2  0     0  0
 16 22  1  0     0  0
 16 26  1  0     0  0
 17 23  1  0     0  0
 18 24  1  0     0  0
 19 21  1  0     0  0
 20 22  2  0     0  0
 23 24  2  0     0  0
 27 28  1  0     0  0
 28 29  1  0     0  0
 29 30  1  0     0  0
M  END
> <standard_type>
pIC50

> <# Confs.>
25

> <canonical_smiles>
IC(N=C1CCCC)=C(CO)N1CC2=CC=C(C3=CC=CC=C3C4=NN=NN4)C=C2

> <standard_relation>
=

> <Publication_ID>
nan

> <predicted_activity_value>
7.6777807052660805

> <actual_activity_value>
7.698970004336019

> <Compound>
3

> <standard_units>
nM

> hash
15855483879499829441

$$$$
3_
XXILIB    08252103513D 0   0.00000     0.00000

 30 33  0     1  0            999 V2000
    5.3113    1.6775   -0.1422 I   0  0  0  0  0  1           0  0  0
    1.6464    2.9455    1.2939 O   0  0  0  0  0  2           0  0  0
    2.0595   -1.5386    5.7448 N   0  0  0  0  0  3           0  0  0
    1.5495   -2.6808    6.1847 N   0  0  0  0  0  3           0  0  0
    1.0508   -0.6594    5.8109 N   0  0  0  0  0  3           0  0  0
    0.2258   -2.5322    6.5281 N   0  0  0  0  0  3           0  0  0
    1.4524   -0.0000    0.0000 N   0  0  0  0  0  3           0  0  0
    3.5360   -0.7717   -0.0359 N   0  0  0  0  0  3           0  0  0
    3.5433    0.5951   -0.0627 C   0  0  0  0  0  4           0  0  0
   -0.0750   -1.2699    6.2931 C   0  0  0  0  0  4           0  0  0
    2.2650   -1.1177    0.0000 C   0  0  0  0  0  4           0  0  0
    2.2657    1.1179   -0.0387 C   0  0  0  0  0  4           0  0  0
   -1.3406   -0.6047    6.4852 C   0  0  0  0  0  4           0  0  0
   -2.0364    0.0012    5.4141 C   0  0  0  0  0  4           0  0  0
   -1.5275    0.0005    4.0481 C   0  0  0  0  0  4           0  0  0
   -0.5412    0.0000    1.3973 C   0  0  0  0  0  4           0  0  0
   -1.8769   -0.5587    7.7827 C   0  0  0  0  0  4           0  0  0
   -3.2654    0.6330    5.6853 C   0  0  0  0  0  4           0  0  0
   -1.2884   -1.2046    3.3712 C   0  0  0  0  0  4           0  0  0
   -1.2624    1.2052    3.3807 C   0  0  0  0  0  4           0  0  0
   -0.7987   -1.2048    2.0620 C   0  0  0  0  0  4           0  0  0
   -0.7726    1.2049    2.0716 C   0  0  0  0  0  4           0  0  0
   -3.0953    0.0729    8.0261 C   0  0  0  0  0  4           0  0  0
   -3.7901    0.6672    6.9782 C   0  0  0  0  0  4           0  0  0
    1.7647    2.5088   -0.0532 C   0  0  0  0  0  4           0  0  0
    0.0000    0.0000    0.0000 C   0  0  0  0  0  4           0  0  0
    1.7706   -2.5209    0.0365 C   0  0  0  0  0  4           0  0  0
    2.5073   -3.3979   -0.9697 C   0  0  0  0  0  4           0  0  0
    2.3660   -2.9410   -2.4224 C   0  0  0  0  0  4           0  0  0
    3.1127   -3.8374   -3.3989 C   0  0  0  0  0  4           0  0  0
  1  9  1  0     0  0
  2 25  1  0     0  0
  3  4  2  0     0  0
  3  5  1  0     0  0
  4  6  1  0     0  0
  5 10  1  0     0  0
  6 10  2  0     0  0
  7 11  1  0     0  0
  7 12  1  0     0  0
  7 26  1  0     0  0
  8  9  1  0     0  0
  8 11  2  0     0  0
  9 12  2  0     0  0
 10 13  1  0     0  0
 11 27  1  0     0  0
 12 25  1  0     0  0
 13 14  1  0     0  0
 13 17  2  0     0  0
 14 15  1  0     0  0
 14 18  2  0     0  0
 15 19  2  0     0  0
 15 20  1  0     0  0
 16 21  2  0     0  0
 16 22  1  0     0  0
 16 26  1  0     0  0
 17 23  1  0     0  0
 18 24  1  0     0  0
 19 21  1  0     0  0
 20 22  2  0     0  0
 23 24  2  0     0  0
 27 28  1  0     0  0
 28 29  1  0     0  0
 29 30  1  0     0  0
M  END
> <standard_type>
pIC50

> <# Confs.>
25

> <canonical_smiles>
IC(N=C1CCCC)=C(CO)N1CC2=CC=C(C3=CC=CC=C3C4=NN=NN4)C=C2

> <standard_relation>
=

> <Publication_ID>
nan

> <predicted_activity_value>
7.6777807052660805

> <actual_activity_value>
7.698970004336019

> <Compound>
3

> <standard_units>
nM

> hash
15855483879499829441

$$$$
3_
XXILIB    08252103513D 0   0.00000     0.00000

 30 33  0     1  0            999 V2000
    5.3113   -1.6775    0.1422 I   0  0  0  0  0  1           0  0  0
    1.6464   -2.9455   -1.2939 O   0  0  0  0  0  2           0  0  0
   -3.2863    3.9132    3.6741 N   0  0  0  0  0  3           0  0  0
   -2.5390    4.4970    4.6010 N   0  0  0  0  0  3           0  0  0
   -3.4154    2.6433    4.0809 N   0  0  0  0  0  3           0  0  0
   -2.1932    3.6068    5.5911 N   0  0  0  0  0  3           0  0  0
    1.4524   -0.0000   -0.0000 N   0  0  0  0  0  3           0  0  0
    3.5360    0.7717    0.0359 N   0  0  0  0  0  3           0  0  0
    3.5433   -0.5951    0.0627 C   0  0  0  0  0  4           0  0  0
   -2.7447    2.4558    5.2590 C   0  0  0  0  0  4           0  0  0
    2.2650    1.1177    0.0000 C   0  0  0  0  0  4           0  0  0
    2.2657   -1.1179    0.0387 C   0  0  0  0  0  4           0  0  0
   -2.6808    1.2000    5.9661 C   0  0  0  0  0  4           0  0  0
   -2.1274    0.0392    5.3788 C   0  0  0  0  0  4           0  0  0
   -1.5880    0.0263    4.0246 C   0  0  0  0  0  4           0  0  0
   -0.5412    0.0000    1.3973 C   0  0  0  0  0  4           0  0  0
   -3.1973    1.1452    7.2712 C   0  0  0  0  0  4           0  0  0
   -2.1046   -1.1486    6.1350 C   0  0  0  0  0  4           0  0  0
   -0.5201    0.8633    3.6688 C   0  0  0  0  0  4           0  0  0
   -2.1271   -0.8211    3.0458 C   0  0  0  0  0  4           0  0  0
   -0.0043    0.8520    2.3697 C   0  0  0  0  0  4           0  0  0
   -1.6113   -0.8323    1.7468 C   0  0  0  0  0  4           0  0  0
   -3.1636   -0.0426    7.9997 C   0  0  0  0  0  4           0  0  0
   -2.6164   -1.1886    7.4329 C   0  0  0  0  0  4           0  0  0
    1.7647   -2.5088    0.0532 C   0  0  0  0  0  4           0  0  0
    0.0000    0.0000   -0.0000 C   0  0  0  0  0  4           0  0  0
    1.7706    2.5209   -0.0365 C   0  0  0  0  0  4           0  0  0
    1.6197    3.0217   -1.4685 C   0  0  0  0  0  4           0  0  0
    1.1140    4.4607   -1.5802 C   0  0  0  0  0  4           0  0  0
    0.9750    4.9279   -3.0215 C   0  0  0  0  0  4           0  0  0
  1  9  1  0     0  0
  2 25  1  0     0  0
  3  4  2  0     0  0
  3  5  1  0     0  0
  4  6  1  0     0  0
  5 10  1  0     0  0
  6 10  2  0     0  0
  7 11  1  0     0  0
  7 12  1  0     0  0
  7 26  1  0     0  0
  8  9  1  0     0  0
  8 11  2  0     0  0
  9 12  2  0     0  0
 10 13  1  0     0  0
 11 27  1  0     0  0
 12 25  1  0     0  0
 13 14  1  0     0  0
 13 17  2  0     0  0
 14 15  1  0     0  0
 14 18  2  0     0  0
 15 19  2  0     0  0
 15 20  1  0     0  0
 16 21  2  0     0  0
 16 22  1  0     0  0
 16 26  1  0     0  0
 17 23  1  0     0  0
 18 24  1  0     0  0
 19 21  1  0     0  0
 20 22  2  0     0  0
 23 24  2  0     0  0
 27 28  1  0     0  0
 28 29  1  0     0  0
 29 30  1  0     0  0
M  END
> <standard_type>
pIC50

> <# Confs.>
25

> <canonical_smiles>
IC(N=C1CCCC)=C(CO)N1CC2=CC=C(C3=CC=CC=C3C4=NN=NN4)C=C2

> <standard_relation>
=

> <Publication_ID>
nan

> <predicted_activity_value>
7.6777807052660805

> <actual_activity_value>
7.698970004336019

> <Compound>
3

> <standard_units>
nM

> hash
15855483879499829441

$$$$
3_
XXILIB    08252103513D 0   0.00000     0.00000

 30 33  0     1  0            999 V2000
    5.3113    1.6775   -0.1422 I   0  0  0  0  0  1           0  0  0
    1.6464    2.9455    1.2939 O   0  0  0  0  0  2           0  0  0
   -5.5648    0.7490    2.9119 N   0  0  0  0  0  3           0  0  0
   -6.0691   -0.3954    3.3528 N   0  0  0  0  0  3           0  0  0
   -4.5396    1.0158    3.7321 N   0  0  0  0  0  3           0  0  0
   -5.3721   -0.8551    4.4460 N   0  0  0  0  0  3           0  0  0
    1.4524   -0.0000    0.0000 N   0  0  0  0  0  3           0  0  0
    3.5360   -0.7717   -0.0359 N   0  0  0  0  0  3           0  0  0
    3.5433    0.5951   -0.0627 C   0  0  0  0  0  4           0  0  0
   -4.4209    0.0297    4.6735 C   0  0  0  0  0  4           0  0  0
    2.2650   -1.1177    0.0000 C   0  0  0  0  0  4           0  0  0
    2.2657    1.1179   -0.0387 C   0  0  0  0  0  4           0  0  0
   -3.4185    0.0136    5.7109 C   0  0  0  0  0  4           0  0  0
   -2.0364    0.0012    5.4141 C   0  0  0  0  0  4           0  0  0
   -1.5275    0.0005    4.0481 C   0  0  0  0  0  4           0  0  0
   -0.5412   -0.0000    1.3973 C   0  0  0  0  0  4           0  0  0
   -3.8468   -0.0002    7.0486 C   0  0  0  0  0  4           0  0  0
   -1.1213   -0.0169    6.4844 C   0  0  0  0  0  4           0  0  0
   -1.2884   -1.2046    3.3712 C   0  0  0  0  0  4           0  0  0
   -1.2624    1.2052    3.3807 C   0  0  0  0  0  4           0  0  0
   -0.7987   -1.2048    2.0620 C   0  0  0  0  0  4           0  0  0
   -0.7726    1.2049    2.0716 C   0  0  0  0  0  4           0  0  0
   -2.9216   -0.0183    8.0909 C   0  0  0  0  0  4           0  0  0
   -1.5597   -0.0252    7.8095 C   0  0  0  0  0  4           0  0  0
    1.7647    2.5088   -0.0532 C   0  0  0  0  0  4           0  0  0
    0.0000    0.0000   -0.0000 C   0  0  0  0  0  4           0  0  0
    1.7706   -2.5209    0.0365 C   0  0  0  0  0  4           0  0  0
    2.5073   -3.3979   -0.9697 C   0  0  0  0  0  4           0  0  0
    2.0481   -4.8566   -0.9855 C   0  0  0  0  0  4           0  0  0
    2.8031   -5.7027   -1.9999 C   0  0  0  0  0  4           0  0  0
  1  9  1  0     0  0
  2 25  1  0     0  0
  3  4  2  0     0  0
  3  5  1  0     0  0
  4  6  1  0     0  0
  5 10  1  0     0  0
  6 10  2  0     0  0
  7 11  1  0     0  0
  7 12  1  0     0  0
  7 26  1  0     0  0
  8  9  1  0     0  0
  8 11  2  0     0  0
  9 12  2  0     0  0
 10 13  1  0     0  0
 11 27  1  0     0  0
 12 25  1  0     0  0
 13 14  1  0     0  0
 13 17  2  0     0  0
 14 15  1  0     0  0
 14 18  2  0     0  0
 15 19  2  0     0  0
 15 20  1  0     0  0
 16 21  2  0     0  0
 16 22  1  0     0  0
 16 26  1  0     0  0
 17 23  1  0     0  0
 18 24  1  0     0  0
 19 21  1  0     0  0
 20 22  2  0     0  0
 23 24  2  0     0  0
 27 28  1  0     0  0
 28 29  1  0     0  0
 29 30  1  0     0  0
M  END
> <standard_type>
pIC50

> <# Confs.>
25

> <canonical_smiles>
IC(N=C1CCCC)=C(CO)N1CC2=CC=C(C3=CC=CC=C3C4=NN=NN4)C=C2

> <standard_relation>
=

> <Publication_ID>
nan

> <predicted_activity_value>
7.6777807052660805

> <actual_activity_value>
7.698970004336019

> <Compound>
3

> <standard_units>
nM

> hash
15855483879499829441

$$$$
3_
XXILIB    08252103513D 0   0.00000     0.00000

 30 33  0     1  0            999 V2000
    5.3113    1.6775   -0.1422 I   0  0  0  0  0  1           0  0  0
    1.6464    2.9455    1.2939 O   0  0  0  0  0  2           0  0  0
   -5.5648    0.7490    2.9119 N   0  0  0  0  0  3           0  0  0
   -6.0691   -0.3954    3.3528 N   0  0  0  0  0  3           0  0  0
   -4.5396    1.0158    3.7321 N   0  0  0  0  0  3           0  0  0
   -5.3721   -0.8551    4.4460 N   0  0  0  0  0  3           0  0  0
    1.4524   -0.0000    0.0000 N   0  0  0  0  0  3           0  0  0
    3.5360   -0.7717   -0.0359 N   0  0  0  0  0  3           0  0  0
    3.5433    0.5951   -0.0627 C   0  0  0  0  0  4           0  0  0
   -4.4209    0.0297    4.6735 C   0  0  0  0  0  4           0  0  0
    2.2650   -1.1177    0.0000 C   0  0  0  0  0  4           0  0  0
    2.2657    1.1179   -0.0387 C   0  0  0  0  0  4           0  0  0
   -3.4185    0.0136    5.7109 C   0  0  0  0  0  4           0  0  0
   -2.0364    0.0012    5.4141 C   0  0  0  0  0  4           0  0  0
   -1.5275    0.0005    4.0481 C   0  0  0  0  0  4           0  0  0
   -0.5412   -0.0000    1.3973 C   0  0  0  0  0  4           0  0  0
   -3.8468   -0.0002    7.0486 C   0  0  0  0  0  4           0  0  0
   -1.1213   -0.0169    6.4844 C   0  0  0  0  0  4           0  0  0
   -1.2884   -1.2046    3.3712 C   0  0  0  0  0  4           0  0  0
   -1.2624    1.2052    3.3807 C   0  0  0  0  0  4           0  0  0
   -0.7987   -1.2048    2.0620 C   0  0  0  0  0  4           0  0  0
   -0.7726    1.2049    2.0716 C   0  0  0  0  0  4           0  0  0
   -2.9216   -0.0183    8.0909 C   0  0  0  0  0  4           0  0  0
   -1.5597   -0.0252    7.8095 C   0  0  0  0  0  4           0  0  0
    1.7647    2.5088   -0.0532 C   0  0  0  0  0  4           0  0  0
    0.0000    0.0000   -0.0000 C   0  0  0  0  0  4           0  0  0
    1.7706   -2.5209    0.0365 C   0  0  0  0  0  4           0  0  0
    2.5073   -3.3979   -0.9697 C   0  0  0  0  0  4           0  0  0
    2.3660   -2.9410   -2.4224 C   0  0  0  0  0  4           0  0  0
    3.1127   -3.8374   -3.3989 C   0  0  0  0  0  4           0  0  0
  1  9  1  0     0  0
  2 25  1  0     0  0
  3  4  2  0     0  0
  3  5  1  0     0  0
  4  6  1  0     0  0
  5 10  1  0     0  0
  6 10  2  0     0  0
  7 11  1  0     0  0
  7 12  1  0     0  0
  7 26  1  0     0  0
  8  9  1  0     0  0
  8 11  2  0     0  0
  9 12  2  0     0  0
 10 13  1  0     0  0
 11 27  1  0     0  0
 12 25  1  0     0  0
 13 14  1  0     0  0
 13 17  2  0     0  0
 14 15  1  0     0  0
 14 18  2  0     0  0
 15 19  2  0     0  0
 15 20  1  0     0  0
 16 21  2  0     0  0
 16 22  1  0     0  0
 16 26  1  0     0  0
 17 23  1  0     0  0
 18 24  1  0     0  0
 19 21  1  0     0  0
 20 22  2  0     0  0
 23 24  2  0     0  0
 27 28  1  0     0  0
 28 29  1  0     0  0
 29 30  1  0     0  0
M  END
> <standard_type>
pIC50

> <# Confs.>
25

> <canonical_smiles>
IC(N=C1CCCC)=C(CO)N1CC2=CC=C(C3=CC=CC=C3C4=NN=NN4)C=C2

> <standard_relation>
=

> <Publication_ID>
nan

> <predicted_activity_value>
7.6777807052660805

> <actual_activity_value>
7.698970004336019

> <Compound>
3

> <standard_units>
nM

> hash
15855483879499829441

$$$$
3_
XXILIB    08252103513D 0   0.00000     0.00000

 30 33  0     1  0            999 V2000
    5.3113   -1.6775    0.1422 I   0  0  0  0  0  1           0  0  0
    0.7385   -2.6146   -0.9240 O   0  0  0  0  0  2           0  0  0
    2.0595   -1.5386    5.7448 N   0  0  0  0  0  3           0  0  0
    1.5495   -2.6808    6.1847 N   0  0  0  0  0  3           0  0  0
    1.0508   -0.6594    5.8109 N   0  0  0  0  0  3           0  0  0
    0.2258   -2.5322    6.5281 N   0  0  0  0  0  3           0  0  0
    1.4524   -0.0000    0.0000 N   0  0  0  0  0  3           0  0  0
    3.5360    0.7717    0.0359 N   0  0  0  0  0  3           0  0  0
    3.5433   -0.5951    0.0627 C   0  0  0  0  0  4           0  0  0
   -0.0750   -1.2699    6.2931 C   0  0  0  0  0  4           0  0  0
    2.2650    1.1177    0.0000 C   0  0  0  0  0  4           0  0  0
    2.2657   -1.1179    0.0387 C   0  0  0  0  0  4           0  0  0
   -1.3406   -0.6047    6.4852 C   0  0  0  0  0  4           0  0  0
   -2.0364    0.0012    5.4141 C   0  0  0  0  0  4           0  0  0
   -1.5275    0.0005    4.0481 C   0  0  0  0  0  4           0  0  0
   -0.5412    0.0000    1.3973 C   0  0  0  0  0  4           0  0  0
   -1.8769   -0.5587    7.7827 C   0  0  0  0  0  4           0  0  0
   -3.2654    0.6330    5.6853 C   0  0  0  0  0  4           0  0  0
   -1.2884   -1.2046    3.3712 C   0  0  0  0  0  4           0  0  0
   -1.2624    1.2052    3.3807 C   0  0  0  0  0  4           0  0  0
   -0.7987   -1.2048    2.0620 C   0  0  0  0  0  4           0  0  0
   -0.7726    1.2049    2.0716 C   0  0  0  0  0  4           0  0  0
   -3.0953    0.0729    8.0261 C   0  0  0  0  0  4           0  0  0
   -3.7901    0.6672    6.9782 C   0  0  0  0  0  4           0  0  0
    1.7647   -2.5088    0.0532 C   0  0  0  0  0  4           0  0  0
    0.0000    0.0000    0.0000 C   0  0  0  0  0  4           0  0  0
    1.7706    2.5209   -0.0365 C   0  0  0  0  0  4           0  0  0
    2.5557    3.3627   -1.0361 C   0  0  0  0  0  4           0  0  0
    2.4842    2.8551   -2.4771 C   0  0  0  0  0  4           0  0  0
    3.2778    3.7174   -3.4473 C   0  0  0  0  0  4           0  0  0
  1  9  1  0     0  0
  2 25  1  0     0  0
  3  4  2  0     0  0
  3  5  1  0     0  0
  4  6  1  0     0  0
  5 10  1  0     0  0
  6 10  2  0     0  0
  7 11  1  0     0  0
  7 12  1  0     0  0
  7 26  1  0     0  0
  8  9  1  0     0  0
  8 11  2  0     0  0
  9 12  2  0     0  0
 10 13  1  0     0  0
 11 27  1  0     0  0
 12 25  1  0     0  0
 13 14  1  0     0  0
 13 17  2  0     0  0
 14 15  1  0     0  0
 14 18  2  0     0  0
 15 19  2  0     0  0
 15 20  1  0     0  0
 16 21  2  0     0  0
 16 22  1  0     0  0
 16 26  1  0     0  0
 17 23  1  0     0  0
 18 24  1  0     0  0
 19 21  1  0     0  0
 20 22  2  0     0  0
 23 24  2  0     0  0
 27 28  1  0     0  0
 28 29  1  0     0  0
 29 30  1  0     0  0
M  END
> <standard_type>
pIC50

> <# Confs.>
25

> <canonical_smiles>
IC(N=C1CCCC)=C(CO)N1CC2=CC=C(C3=CC=CC=C3C4=NN=NN4)C=C2

> <standard_relation>
=

> <Publication_ID>
nan

> <predicted_activity_value>
7.6777807052660805

> <actual_activity_value>
7.698970004336019

> <Compound>
3

> <standard_units>
nM

> hash
15855483879499829441

$$$$
3_
XXILIB    08252103513D 0   0.00000     0.00000

 30 33  0     1  0            999 V2000
    5.3113    1.6775   -0.1422 I   0  0  0  0  0  1           0  0  0
    1.6464    2.9455    1.2939 O   0  0  0  0  0  2           0  0  0
    2.0595   -1.5386    5.7448 N   0  0  0  0  0  3           0  0  0
    1.5495   -2.6808    6.1847 N   0  0  0  0  0  3           0  0  0
    1.0508   -0.6594    5.8109 N   0  0  0  0  0  3           0  0  0
    0.2258   -2.5322    6.5281 N   0  0  0  0  0  3           0  0  0
    1.4524   -0.0000   -0.0000 N   0  0  0  0  0  3           0  0  0
    3.5360   -0.7717   -0.0359 N   0  0  0  0  0  3           0  0  0
    3.5433    0.5951   -0.0627 C   0  0  0  0  0  4           0  0  0
   -0.0750   -1.2699    6.2931 C   0  0  0  0  0  4           0  0  0
    2.2650   -1.1177    0.0000 C   0  0  0  0  0  4           0  0  0
    2.2657    1.1179   -0.0387 C   0  0  0  0  0  4           0  0  0
   -1.3406   -0.6047    6.4852 C   0  0  0  0  0  4           0  0  0
   -2.0364    0.0012    5.4141 C   0  0  0  0  0  4           0  0  0
   -1.5275    0.0005    4.0481 C   0  0  0  0  0  4           0  0  0
   -0.5412    0.0000    1.3973 C   0  0  0  0  0  4           0  0  0
   -1.8769   -0.5587    7.7827 C   0  0  0  0  0  4           0  0  0
   -3.2654    0.6330    5.6853 C   0  0  0  0  0  4           0  0  0
   -1.2884   -1.2046    3.3712 C   0  0  0  0  0  4           0  0  0
   -1.2624    1.2052    3.3807 C   0  0  0  0  0  4           0  0  0
   -0.7987   -1.2048    2.0620 C   0  0  0  0  0  4           0  0  0
   -0.7726    1.2049    2.0716 C   0  0  0  0  0  4           0  0  0
   -3.0953    0.0729    8.0261 C   0  0  0  0  0  4           0  0  0
   -3.7901    0.6672    6.9782 C   0  0  0  0  0  4           0  0  0
    1.7647    2.5088   -0.0532 C   0  0  0  0  0  4           0  0  0
    0.0000    0.0000    0.0000 C   0  0  0  0  0  4           0  0  0
    1.7706   -2.5209    0.0365 C   0  0  0  0  0  4           0  0  0
    2.9234   -3.5185    0.0262 C   0  0  0  0  0  4           0  0  0
    2.4859   -4.9836    0.0625 C   0  0  0  0  0  4           0  0  0
    1.6747   -5.3275    1.3028 C   0  0  0  0  0  4           0  0  0
  1  9  1  0     0  0
  2 25  1  0     0  0
  3  4  2  0     0  0
  3  5  1  0     0  0
  4  6  1  0     0  0
  5 10  1  0     0  0
  6 10  2  0     0  0
  7 11  1  0     0  0
  7 12  1  0     0  0
  7 26  1  0     0  0
  8  9  1  0     0  0
  8 11  2  0     0  0
  9 12  2  0     0  0
 10 13  1  0     0  0
 11 27  1  0     0  0
 12 25  1  0     0  0
 13 14  1  0     0  0
 13 17  2  0     0  0
 14 15  1  0     0  0
 14 18  2  0     0  0
 15 19  2  0     0  0
 15 20  1  0     0  0
 16 21  2  0     0  0
 16 22  1  0     0  0
 16 26  1  0     0  0
 17 23  1  0     0  0
 18 24  1  0     0  0
 19 21  1  0     0  0
 20 22  2  0     0  0
 23 24  2  0     0  0
 27 28  1  0     0  0
 28 29  1  0     0  0
 29 30  1  0     0  0
M  END
> <standard_type>
pIC50

> <# Confs.>
25

> <canonical_smiles>
IC(N=C1CCCC)=C(CO)N1CC2=CC=C(C3=CC=CC=C3C4=NN=NN4)C=C2

> <standard_relation>
=

> <Publication_ID>
nan

> <predicted_activity_value>
7.6777807052660805

> <actual_activity_value>
7.698970004336019

> <Compound>
3

> <standard_units>
nM

> hash
15855483879499829441

$$$$
3_
XXILIB    08252103513D 0   0.00000     0.00000

 30 33  0     1  0            999 V2000
    5.3113   -1.6775    0.1422 I   0  0  0  0  0  1           0  0  0
    1.6464   -2.9455   -1.2939 O   0  0  0  0  0  2           0  0  0
   -3.2863    3.9132    3.6741 N   0  0  0  0  0  3           0  0  0
   -2.5390    4.4970    4.6010 N   0  0  0  0  0  3           0  0  0
   -3.4154    2.6433    4.0809 N   0  0  0  0  0  3           0  0  0
   -2.1932    3.6068    5.5911 N   0  0  0  0  0  3           0  0  0
    1.4524   -0.0000    0.0000 N   0  0  0  0  0  3           0  0  0
    3.5360    0.7717    0.0359 N   0  0  0  0  0  3           0  0  0
    3.5433   -0.5951    0.0627 C   0  0  0  0  0  4           0  0  0
   -2.7447    2.4558    5.2590 C   0  0  0  0  0  4           0  0  0
    2.2650    1.1177    0.0000 C   0  0  0  0  0  4           0  0  0
    2.2657   -1.1179    0.0387 C   0  0  0  0  0  4           0  0  0
   -2.6808    1.2000    5.9661 C   0  0  0  0  0  4           0  0  0
   -2.1274    0.0392    5.3788 C   0  0  0  0  0  4           0  0  0
   -1.5880    0.0263    4.0246 C   0  0  0  0  0  4           0  0  0
   -0.5412    0.0000    1.3973 C   0  0  0  0  0  4           0  0  0
   -3.1973    1.1452    7.2712 C   0  0  0  0  0  4           0  0  0
   -2.1046   -1.1486    6.1350 C   0  0  0  0  0  4           0  0  0
   -0.5201    0.8633    3.6688 C   0  0  0  0  0  4           0  0  0
   -2.1271   -0.8211    3.0458 C   0  0  0  0  0  4           0  0  0
   -0.0043    0.8520    2.3697 C   0  0  0  0  0  4           0  0  0
   -1.6113   -0.8323    1.7468 C   0  0  0  0  0  4           0  0  0
   -3.1636   -0.0426    7.9997 C   0  0  0  0  0  4           0  0  0
   -2.6164   -1.1886    7.4329 C   0  0  0  0  0  4           0  0  0
    1.7647   -2.5088    0.0532 C   0  0  0  0  0  4           0  0  0
    0.0000    0.0000   -0.0000 C   0  0  0  0  0  4           0  0  0
    1.7706    2.5209   -0.0365 C   0  0  0  0  0  4           0  0  0
    2.5557    3.3627   -1.0361 C   0  0  0  0  0  4           0  0  0
    2.4842    2.8551   -2.4771 C   0  0  0  0  0  4           0  0  0
    3.2778    3.7174   -3.4473 C   0  0  0  0  0  4           0  0  0
  1  9  1  0     0  0
  2 25  1  0     0  0
  3  4  2  0     0  0
  3  5  1  0     0  0
  4  6  1  0     0  0
  5 10  1  0     0  0
  6 10  2  0     0  0
  7 11  1  0     0  0
  7 12  1  0     0  0
  7 26  1  0     0  0
  8  9  1  0     0  0
  8 11  2  0     0  0
  9 12  2  0     0  0
 10 13  1  0     0  0
 11 27  1  0     0  0
 12 25  1  0     0  0
 13 14  1  0     0  0
 13 17  2  0     0  0
 14 15  1  0     0  0
 14 18  2  0     0  0
 15 19  2  0     0  0
 15 20  1  0     0  0
 16 21  2  0     0  0
 16 22  1  0     0  0
 16 26  1  0     0  0
 17 23  1  0     0  0
 18 24  1  0     0  0
 19 21  1  0     0  0
 20 22  2  0     0  0
 23 24  2  0     0  0
 27 28  1  0     0  0
 28 29  1  0     0  0
 29 30  1  0     0  0
M  END
> <standard_type>
pIC50

> <# Confs.>
25

> <canonical_smiles>
IC(N=C1CCCC)=C(CO)N1CC2=CC=C(C3=CC=CC=C3C4=NN=NN4)C=C2

> <standard_relation>
=

> <Publication_ID>
nan

> <predicted_activity_value>
7.6777807052660805

> <actual_activity_value>
7.698970004336019

> <Compound>
3

> <standard_units>
nM

> hash
15855483879499829441

$$$$
3_
XXILIB    08252103513D 0   0.00000     0.00000

 30 33  0     1  0            999 V2000
    5.3113    1.6775   -0.1422 I   0  0  0  0  0  1           0  0  0
    1.6464    2.9455    1.2939 O   0  0  0  0  0  2           0  0  0
   -5.3910   -1.4412    2.9777 N   0  0  0  0  0  3           0  0  0
   -5.3189   -2.5916    3.6333 N   0  0  0  0  0  3           0  0  0
   -4.6472   -0.5866    3.6928 N   0  0  0  0  0  3           0  0  0
   -4.5362   -2.4722    4.7581 N   0  0  0  0  0  3           0  0  0
    1.4524   -0.0000   -0.0000 N   0  0  0  0  0  3           0  0  0
    3.5360   -0.7717   -0.0359 N   0  0  0  0  0  3           0  0  0
    3.5433    0.5951   -0.0627 C   0  0  0  0  0  4           0  0  0
   -4.1215   -1.2207    4.7857 C   0  0  0  0  0  4           0  0  0
    2.2650   -1.1177    0.0000 C   0  0  0  0  0  4           0  0  0
    2.2657    1.1179   -0.0387 C   0  0  0  0  0  4           0  0  0
   -3.2747   -0.5838    5.7647 C   0  0  0  0  0  4           0  0  0
   -2.0364    0.0012    5.4141 C   0  0  0  0  0  4           0  0  0
   -1.5275    0.0005    4.0481 C   0  0  0  0  0  4           0  0  0
   -0.5412    0.0000    1.3973 C   0  0  0  0  0  4           0  0  0
   -3.7044   -0.5629    7.1019 C   0  0  0  0  0  4           0  0  0
   -1.2671    0.6012    6.4297 C   0  0  0  0  0  4           0  0  0
   -1.2884   -1.2046    3.3712 C   0  0  0  0  0  4           0  0  0
   -1.2624    1.2052    3.3807 C   0  0  0  0  0  4           0  0  0
   -0.7987   -1.2048    2.0620 C   0  0  0  0  0  4           0  0  0
   -0.7726    1.2049    2.0716 C   0  0  0  0  0  4           0  0  0
   -2.9250    0.0369    8.0896 C   0  0  0  0  0  4           0  0  0
   -1.7078    0.6199    7.7539 C   0  0  0  0  0  4           0  0  0
    1.7647    2.5088   -0.0532 C   0  0  0  0  0  4           0  0  0
    0.0000   -0.0000    0.0000 C   0  0  0  0  0  4           0  0  0
    1.7706   -2.5209    0.0365 C   0  0  0  0  0  4           0  0  0
    2.9234   -3.5185    0.0262 C   0  0  0  0  0  4           0  0  0
    2.4859   -4.9836    0.0625 C   0  0  0  0  0  4           0  0  0
    1.6747   -5.3275    1.3028 C   0  0  0  0  0  4           0  0  0
  1  9  1  0     0  0
  2 25  1  0     0  0
  3  4  2  0     0  0
  3  5  1  0     0  0
  4  6  1  0     0  0
  5 10  1  0     0  0
  6 10  2  0     0  0
  7 11  1  0     0  0
  7 12  1  0     0  0
  7 26  1  0     0  0
  8  9  1  0     0  0
  8 11  2  0     0  0
  9 12  2  0     0  0
 10 13  1  0     0  0
 11 27  1  0     0  0
 12 25  1  0     0  0
 13 14  1  0     0  0
 13 17  2  0     0  0
 14 15  1  0     0  0
 14 18  2  0     0  0
 15 19  2  0     0  0
 15 20  1  0     0  0
 16 21  2  0     0  0
 16 22  1  0     0  0
 16 26  1  0     0  0
 17 23  1  0     0  0
 18 24  1  0     0  0
 19 21  1  0     0  0
 20 22  2  0     0  0
 23 24  2  0     0  0
 27 28  1  0     0  0
 28 29  1  0     0  0
 29 30  1  0     0  0
M  END
> <standard_type>
pIC50

> <# Confs.>
25

> <canonical_smiles>
IC(N=C1CCCC)=C(CO)N1CC2=CC=C(C3=CC=CC=C3C4=NN=NN4)C=C2

> <standard_relation>
=

> <Publication_ID>
nan

> <predicted_activity_value>
7.6777807052660805

> <actual_activity_value>
7.698970004336019

> <Compound>
3

> <standard_units>
nM

> hash
15855483879499829441

$$$$
3_
XXILIB    08252103513D 0   0.00000     0.00000

 30 33  0     1  0            999 V2000
    5.3113   -1.6775    0.1422 I   0  0  0  0  0  1           0  0  0
    1.6464   -2.9455   -1.2939 O   0  0  0  0  0  2           0  0  0
   -3.2863    3.9132    3.6741 N   0  0  0  0  0  3           0  0  0
   -2.5390    4.4970    4.6010 N   0  0  0  0  0  3           0  0  0
   -3.4154    2.6433    4.0809 N   0  0  0  0  0  3           0  0  0
   -2.1932    3.6068    5.5911 N   0  0  0  0  0  3           0  0  0
    1.4524    0.0000    0.0000 N   0  0  0  0  0  3           0  0  0
    3.5360    0.7717    0.0359 N   0  0  0  0  0  3           0  0  0
    3.5433   -0.5951    0.0627 C   0  0  0  0  0  4           0  0  0
   -2.7447    2.4558    5.2590 C   0  0  0  0  0  4           0  0  0
    2.2650    1.1177    0.0000 C   0  0  0  0  0  4           0  0  0
    2.2657   -1.1179    0.0387 C   0  0  0  0  0  4           0  0  0
   -2.6808    1.2000    5.9661 C   0  0  0  0  0  4           0  0  0
   -2.1274    0.0392    5.3788 C   0  0  0  0  0  4           0  0  0
   -1.5880    0.0263    4.0246 C   0  0  0  0  0  4           0  0  0
   -0.5412    0.0000    1.3973 C   0  0  0  0  0  4           0  0  0
   -3.1973    1.1452    7.2712 C   0  0  0  0  0  4           0  0  0
   -2.1046   -1.1486    6.1350 C   0  0  0  0  0  4           0  0  0
   -0.5201    0.8633    3.6688 C   0  0  0  0  0  4           0  0  0
   -2.1271   -0.8211    3.0458 C   0  0  0  0  0  4           0  0  0
   -0.0043    0.8520    2.3697 C   0  0  0  0  0  4           0  0  0
   -1.6113   -0.8323    1.7468 C   0  0  0  0  0  4           0  0  0
   -3.1636   -0.0426    7.9997 C   0  0  0  0  0  4           0  0  0
   -2.6164   -1.1886    7.4329 C   0  0  0  0  0  4           0  0  0
    1.7647   -2.5088    0.0532 C   0  0  0  0  0  4           0  0  0
    0.0000    0.0000   -0.0000 C   0  0  0  0  0  4           0  0  0
    1.7706    2.5209   -0.0365 C   0  0  0  0  0  4           0  0  0
    2.5073    3.3979    0.9697 C   0  0  0  0  0  4           0  0  0
    2.0481    4.8566    0.9855 C   0  0  0  0  0  4           0  0  0
    2.8031    5.7027    1.9999 C   0  0  0  0  0  4           0  0  0
  1  9  1  0     0  0
  2 25  1  0     0  0
  3  4  2  0     0  0
  3  5  1  0     0  0
  4  6  1  0     0  0
  5 10  1  0     0  0
  6 10  2  0     0  0
  7 11  1  0     0  0
  7 12  1  0     0  0
  7 26  1  0     0  0
  8  9  1  0     0  0
  8 11  2  0     0  0
  9 12  2  0     0  0
 10 13  1  0     0  0
 11 27  1  0     0  0
 12 25  1  0     0  0
 13 14  1  0     0  0
 13 17  2  0     0  0
 14 15  1  0     0  0
 14 18  2  0     0  0
 15 19  2  0     0  0
 15 20  1  0     0  0
 16 21  2  0     0  0
 16 22  1  0     0  0
 16 26  1  0     0  0
 17 23  1  0     0  0
 18 24  1  0     0  0
 19 21  1  0     0  0
 20 22  2  0     0  0
 23 24  2  0     0  0
 27 28  1  0     0  0
 28 29  1  0     0  0
 29 30  1  0     0  0
M  END
> <standard_type>
pIC50

> <# Confs.>
25

> <canonical_smiles>
IC(N=C1CCCC)=C(CO)N1CC2=CC=C(C3=CC=CC=C3C4=NN=NN4)C=C2

> <standard_relation>
=

> <Publication_ID>
nan

> <predicted_activity_value>
7.6777807052660805

> <actual_activity_value>
7.698970004336019

> <Compound>
3

> <standard_units>
nM

> hash
15855483879499829441

$$$$
3_
XXILIB    08252103513D 0   0.00000     0.00000

 30 33  0     1  0            999 V2000
    5.3113   -1.6775    0.1422 I   0  0  0  0  0  1           0  0  0
    0.7385   -2.6146   -0.9240 O   0  0  0  0  0  2           0  0  0
    2.0595   -1.5386    5.7448 N   0  0  0  0  0  3           0  0  0
    1.5495   -2.6808    6.1847 N   0  0  0  0  0  3           0  0  0
    1.0508   -0.6594    5.8109 N   0  0  0  0  0  3           0  0  0
    0.2258   -2.5322    6.5281 N   0  0  0  0  0  3           0  0  0
    1.4524   -0.0000    0.0000 N   0  0  0  0  0  3           0  0  0
    3.5360    0.7717    0.0359 N   0  0  0  0  0  3           0  0  0
    3.5433   -0.5951    0.0627 C   0  0  0  0  0  4           0  0  0
   -0.0750   -1.2699    6.2931 C   0  0  0  0  0  4           0  0  0
    2.2650    1.1177    0.0000 C   0  0  0  0  0  4           0  0  0
    2.2657   -1.1179    0.0387 C   0  0  0  0  0  4           0  0  0
   -1.3406   -0.6047    6.4852 C   0  0  0  0  0  4           0  0  0
   -2.0364    0.0012    5.4141 C   0  0  0  0  0  4           0  0  0
   -1.5275    0.0005    4.0481 C   0  0  0  0  0  4           0  0  0
   -0.5412    0.0000    1.3973 C   0  0  0  0  0  4           0  0  0
   -1.8769   -0.5587    7.7827 C   0  0  0  0  0  4           0  0  0
   -3.2654    0.6330    5.6853 C   0  0  0  0  0  4           0  0  0
   -1.2884   -1.2046    3.3712 C   0  0  0  0  0  4           0  0  0
   -1.2624    1.2052    3.3807 C   0  0  0  0  0  4           0  0  0
   -0.7987   -1.2048    2.0620 C   0  0  0  0  0  4           0  0  0
   -0.7726    1.2049    2.0716 C   0  0  0  0  0  4           0  0  0
   -3.0953    0.0729    8.0261 C   0  0  0  0  0  4           0  0  0
   -3.7901    0.6672    6.9782 C   0  0  0  0  0  4           0  0  0
    1.7647   -2.5088    0.0532 C   0  0  0  0  0  4           0  0  0
    0.0000    0.0000    0.0000 C   0  0  0  0  0  4           0  0  0
    1.7706    2.5209   -0.0365 C   0  0  0  0  0  4           0  0  0
    2.5557    3.3627   -1.0361 C   0  0  0  0  0  4           0  0  0
    2.0990    4.8196   -1.1252 C   0  0  0  0  0  4           0  0  0
    2.9028    5.6303   -2.1310 C   0  0  0  0  0  4           0  0  0
  1  9  1  0     0  0
  2 25  1  0     0  0
  3  4  2  0     0  0
  3  5  1  0     0  0
  4  6  1  0     0  0
  5 10  1  0     0  0
  6 10  2  0     0  0
  7 11  1  0     0  0
  7 12  1  0     0  0
  7 26  1  0     0  0
  8  9  1  0     0  0
  8 11  2  0     0  0
  9 12  2  0     0  0
 10 13  1  0     0  0
 11 27  1  0     0  0
 12 25  1  0     0  0
 13 14  1  0     0  0
 13 17  2  0     0  0
 14 15  1  0     0  0
 14 18  2  0     0  0
 15 19  2  0     0  0
 15 20  1  0     0  0
 16 21  2  0     0  0
 16 22  1  0     0  0
 16 26  1  0     0  0
 17 23  1  0     0  0
 18 24  1  0     0  0
 19 21  1  0     0  0
 20 22  2  0     0  0
 23 24  2  0     0  0
 27 28  1  0     0  0
 28 29  1  0     0  0
 29 30  1  0     0  0
M  END
> <standard_type>
pIC50

> <# Confs.>
25

> <canonical_smiles>
IC(N=C1CCCC)=C(CO)N1CC2=CC=C(C3=CC=CC=C3C4=NN=NN4)C=C2

> <standard_relation>
=

> <Publication_ID>
nan

> <predicted_activity_value>
7.6777807052660805

> <actual_activity_value>
7.698970004336019

> <Compound>
3

> <standard_units>
nM

> hash
15855483879499829441

$$$$
3_
XXILIB    08252103513D 0   0.00000     0.00000

 30 33  0     1  0            999 V2000
    5.3113   -1.6775    0.1422 I   0  0  0  0  0  1           0  0  0
    1.6464   -2.9455   -1.2939 O   0  0  0  0  0  2           0  0  0
    1.4569   -2.4805    5.6242 N   0  0  0  0  0  3           0  0  0
    0.6696   -3.4950    5.9551 N   0  0  0  0  0  3           0  0  0
    0.6909   -1.3892    5.7548 N   0  0  0  0  0  3           0  0  0
   -0.5890   -3.0549    6.2935 N   0  0  0  0  0  3           0  0  0
    1.4524   -0.0000   -0.0000 N   0  0  0  0  0  3           0  0  0
    3.5360    0.7717    0.0359 N   0  0  0  0  0  3           0  0  0
    3.5433   -0.5951    0.0627 C   0  0  0  0  0  4           0  0  0
   -0.5653   -1.7424    6.1670 C   0  0  0  0  0  4           0  0  0
    2.2650    1.1177    0.0000 C   0  0  0  0  0  4           0  0  0
    2.2657   -1.1179    0.0387 C   0  0  0  0  0  4           0  0  0
   -1.6367   -0.8051    6.4011 C   0  0  0  0  0  4           0  0  0
   -2.1274    0.0392    5.3788 C   0  0  0  0  0  4           0  0  0
   -1.5880    0.0263    4.0246 C   0  0  0  0  0  4           0  0  0
   -0.5412    0.0000    1.3973 C   0  0  0  0  0  4           0  0  0
   -2.1893   -0.7360    7.6906 C   0  0  0  0  0  4           0  0  0
   -3.1741    0.9288    5.6892 C   0  0  0  0  0  4           0  0  0
   -0.5201    0.8633    3.6688 C   0  0  0  0  0  4           0  0  0
   -2.1271   -0.8211    3.0458 C   0  0  0  0  0  4           0  0  0
   -0.0043    0.8520    2.3697 C   0  0  0  0  0  4           0  0  0
   -1.6113   -0.8323    1.7468 C   0  0  0  0  0  4           0  0  0
   -3.2249    0.1531    7.9734 C   0  0  0  0  0  4           0  0  0
   -3.7182    0.9840    6.9733 C   0  0  0  0  0  4           0  0  0
    1.7647   -2.5088    0.0532 C   0  0  0  0  0  4           0  0  0
    0.0000    0.0000    0.0000 C   0  0  0  0  0  4           0  0  0
    1.7706    2.5209   -0.0365 C   0  0  0  0  0  4           0  0  0
    1.6197    3.0217   -1.4685 C   0  0  0  0  0  4           0  0  0
    1.1140    4.4607   -1.5802 C   0  0  0  0  0  4           0  0  0
    0.9750    4.9279   -3.0215 C   0  0  0  0  0  4           0  0  0
  1  9  1  0     0  0
  2 25  1  0     0  0
  3  4  2  0     0  0
  3  5  1  0     0  0
  4  6  1  0     0  0
  5 10  1  0     0  0
  6 10  2  0     0  0
  7 11  1  0     0  0
  7 12  1  0     0  0
  7 26  1  0     0  0
  8  9  1  0     0  0
  8 11  2  0     0  0
  9 12  2  0     0  0
 10 13  1  0     0  0
 11 27  1  0     0  0
 12 25  1  0     0  0
 13 14  1  0     0  0
 13 17  2  0     0  0
 14 15  1  0     0  0
 14 18  2  0     0  0
 15 19  2  0     0  0
 15 20  1  0     0  0
 16 21  2  0     0  0
 16 22  1  0     0  0
 16 26  1  0     0  0
 17 23  1  0     0  0
 18 24  1  0     0  0
 19 21  1  0     0  0
 20 22  2  0     0  0
 23 24  2  0     0  0
 27 28  1  0     0  0
 28 29  1  0     0  0
 29 30  1  0     0  0
M  END
> <standard_type>
pIC50

> <# Confs.>
25

> <canonical_smiles>
IC(N=C1CCCC)=C(CO)N1CC2=CC=C(C3=CC=CC=C3C4=NN=NN4)C=C2

> <standard_relation>
=

> <Publication_ID>
nan

> <predicted_activity_value>
7.6777807052660805

> <actual_activity_value>
7.698970004336019

> <Compound>
3

> <standard_units>
nM

> hash
15855483879499829441

$$$$
3_
XXILIB    08252103513D 0   0.00000     0.00000

 30 33  0     1  0            999 V2000
    5.3113   -1.6775    0.1422 I   0  0  0  0  0  1           0  0  0
    1.6464   -2.9455   -1.2939 O   0  0  0  0  0  2           0  0  0
    1.8494   -1.7750    5.7823 N   0  0  0  0  0  3           0  0  0
    2.1962   -0.7466    6.5443 N   0  0  0  0  0  3           0  0  0
    0.5146   -1.7062    5.6922 N   0  0  0  0  0  3           0  0  0
    1.0916   -0.0276    6.9380 N   0  0  0  0  0  3           0  0  0
    1.4524   -0.0000   -0.0000 N   0  0  0  0  0  3           0  0  0
    3.5360    0.7717    0.0359 N   0  0  0  0  0  3           0  0  0
    3.5433   -0.5951    0.0627 C   0  0  0  0  0  4           0  0  0
    0.0496   -0.6321    6.4013 C   0  0  0  0  0  4           0  0  0
    2.2650    1.1177    0.0000 C   0  0  0  0  0  4           0  0  0
    2.2657   -1.1179    0.0387 C   0  0  0  0  0  4           0  0  0
   -1.3434   -0.2740    6.5128 C   0  0  0  0  0  4           0  0  0
   -2.1274    0.0392    5.3788 C   0  0  0  0  0  4           0  0  0
   -1.5880    0.0263    4.0246 C   0  0  0  0  0  4           0  0  0
   -0.5412   -0.0000    1.3973 C   0  0  0  0  0  4           0  0  0
   -1.9180   -0.2306    7.7939 C   0  0  0  0  0  4           0  0  0
   -3.4796    0.3816    5.5727 C   0  0  0  0  0  4           0  0  0
   -0.5201    0.8633    3.6688 C   0  0  0  0  0  4           0  0  0
   -2.1271   -0.8211    3.0458 C   0  0  0  0  0  4           0  0  0
   -0.0043    0.8520    2.3697 C   0  0  0  0  0  4           0  0  0
   -1.6113   -0.8323    1.7468 C   0  0  0  0  0  4           0  0  0
   -3.2589    0.1114    7.9603 C   0  0  0  0  0  4           0  0  0
   -4.0399    0.4160    6.8506 C   0  0  0  0  0  4           0  0  0
    1.7647   -2.5088    0.0532 C   0  0  0  0  0  4           0  0  0
    0.0000    0.0000    0.0000 C   0  0  0  0  0  4           0  0  0
    1.7706    2.5209   -0.0365 C   0  0  0  0  0  4           0  0  0
    1.6197    3.0217   -1.4685 C   0  0  0  0  0  4           0  0  0
    1.1140    4.4607   -1.5802 C   0  0  0  0  0  4           0  0  0
    0.9750    4.9279   -3.0215 C   0  0  0  0  0  4           0  0  0
  1  9  1  0     0  0
  2 25  1  0     0  0
  3  4  2  0     0  0
  3  5  1  0     0  0
  4  6  1  0     0  0
  5 10  1  0     0  0
  6 10  2  0     0  0
  7 11  1  0     0  0
  7 12  1  0     0  0
  7 26  1  0     0  0
  8  9  1  0     0  0
  8 11  2  0     0  0
  9 12  2  0     0  0
 10 13  1  0     0  0
 11 27  1  0     0  0
 12 25  1  0     0  0
 13 14  1  0     0  0
 13 17  2  0     0  0
 14 15  1  0     0  0
 14 18  2  0     0  0
 15 19  2  0     0  0
 15 20  1  0     0  0
 16 21  2  0     0  0
 16 22  1  0     0  0
 16 26  1  0     0  0
 17 23  1  0     0  0
 18 24  1  0     0  0
 19 21  1  0     0  0
 20 22  2  0     0  0
 23 24  2  0     0  0
 27 28  1  0     0  0
 28 29  1  0     0  0
 29 30  1  0     0  0
M  END
> <standard_type>
pIC50

> <# Confs.>
25

> <canonical_smiles>
IC(N=C1CCCC)=C(CO)N1CC2=CC=C(C3=CC=CC=C3C4=NN=NN4)C=C2

> <standard_relation>
=

> <Publication_ID>
nan

> <predicted_activity_value>
7.6777807052660805

> <actual_activity_value>
7.698970004336019

> <Compound>
3

> <standard_units>
nM

> hash
15855483879499829441

$$$$
3_
XXILIB    08252103513D 0   0.00000     0.00000

 30 33  0     1  0            999 V2000
    5.3113    1.6775   -0.1422 I   0  0  0  0  0  1           0  0  0
    1.6464    2.9455    1.2939 O   0  0  0  0  0  2           0  0  0
    2.2847    0.6445    5.8276 N   0  0  0  0  0  3           0  0  0
    2.3507   -0.5069    6.4821 N   0  0  0  0  0  3           0  0  0
    0.9798    0.9448    5.7837 N   0  0  0  0  0  3           0  0  0
    1.0982   -0.9384    6.8523 N   0  0  0  0  0  3           0  0  0
    1.4524   -0.0000    0.0000 N   0  0  0  0  0  3           0  0  0
    3.5360   -0.7717   -0.0359 N   0  0  0  0  0  3           0  0  0
    3.5433    0.5951   -0.0627 C   0  0  0  0  0  4           0  0  0
    0.2515   -0.0272    6.4141 C   0  0  0  0  0  4           0  0  0
    2.2650   -1.1177    0.0000 C   0  0  0  0  0  4           0  0  0
    2.2657    1.1179   -0.0387 C   0  0  0  0  0  4           0  0  0
   -1.1852   -0.0105    6.5428 C   0  0  0  0  0  4           0  0  0
   -2.0364    0.0012    5.4141 C   0  0  0  0  0  4           0  0  0
   -1.5275    0.0005    4.0481 C   0  0  0  0  0  4           0  0  0
   -0.5412   -0.0000    1.3973 C   0  0  0  0  0  4           0  0  0
   -1.7366    0.0046    7.8347 C   0  0  0  0  0  4           0  0  0
   -3.4287    0.0199    5.6248 C   0  0  0  0  0  4           0  0  0
   -1.2884   -1.2046    3.3712 C   0  0  0  0  0  4           0  0  0
   -1.2624    1.2052    3.3807 C   0  0  0  0  0  4           0  0  0
   -0.7987   -1.2048    2.0620 C   0  0  0  0  0  4           0  0  0
   -0.7726    1.2049    2.0716 C   0  0  0  0  0  4           0  0  0
   -3.1182    0.0232    8.0176 C   0  0  0  0  0  4           0  0  0
   -3.9641    0.0294    6.9137 C   0  0  0  0  0  4           0  0  0
    1.7647    2.5088   -0.0532 C   0  0  0  0  0  4           0  0  0
    0.0000    0.0000    0.0000 C   0  0  0  0  0  4           0  0  0
    1.7706   -2.5209    0.0365 C   0  0  0  0  0  4           0  0  0
    2.5073   -3.3979   -0.9697 C   0  0  0  0  0  4           0  0  0
    2.0481   -4.8566   -0.9855 C   0  0  0  0  0  4           0  0  0
    2.8031   -5.7027   -1.9999 C   0  0  0  0  0  4           0  0  0
  1  9  1  0     0  0
  2 25  1  0     0  0
  3  4  2  0     0  0
  3  5  1  0     0  0
  4  6  1  0     0  0
  5 10  1  0     0  0
  6 10  2  0     0  0
  7 11  1  0     0  0
  7 12  1  0     0  0
  7 26  1  0     0  0
  8  9  1  0     0  0
  8 11  2  0     0  0
  9 12  2  0     0  0
 10 13  1  0     0  0
 11 27  1  0     0  0
 12 25  1  0     0  0
 13 14  1  0     0  0
 13 17  2  0     0  0
 14 15  1  0     0  0
 14 18  2  0     0  0
 15 19  2  0     0  0
 15 20  1  0     0  0
 16 21  2  0     0  0
 16 22  1  0     0  0
 16 26  1  0     0  0
 17 23  1  0     0  0
 18 24  1  0     0  0
 19 21  1  0     0  0
 20 22  2  0     0  0
 23 24  2  0     0  0
 27 28  1  0     0  0
 28 29  1  0     0  0
 29 30  1  0     0  0
M  END
> <standard_type>
pIC50

> <# Confs.>
25

> <canonical_smiles>
IC(N=C1CCCC)=C(CO)N1CC2=CC=C(C3=CC=CC=C3C4=NN=NN4)C=C2

> <standard_relation>
=

> <Publication_ID>
nan

> <predicted_activity_value>
7.6777807052660805

> <actual_activity_value>
7.698970004336019

> <Compound>
3

> <standard_units>
nM

> hash
15855483879499829441

$$$$
3_
XXILIB    08252103513D 0   0.00000     0.00000

 30 33  0     1  0            999 V2000
    5.3113    1.6775   -0.1422 I   0  0  0  0  0  1           0  0  0
    1.6464    2.9455    1.2939 O   0  0  0  0  0  2           0  0  0
    2.2847    0.6445    5.8276 N   0  0  0  0  0  3           0  0  0
    2.3507   -0.5069    6.4821 N   0  0  0  0  0  3           0  0  0
    0.9798    0.9448    5.7837 N   0  0  0  0  0  3           0  0  0
    1.0982   -0.9384    6.8523 N   0  0  0  0  0  3           0  0  0
    1.4524   -0.0000    0.0000 N   0  0  0  0  0  3           0  0  0
    3.5360   -0.7717   -0.0359 N   0  0  0  0  0  3           0  0  0
    3.5433    0.5951   -0.0627 C   0  0  0  0  0  4           0  0  0
    0.2515   -0.0272    6.4141 C   0  0  0  0  0  4           0  0  0
    2.2650   -1.1177    0.0000 C   0  0  0  0  0  4           0  0  0
    2.2657    1.1179   -0.0387 C   0  0  0  0  0  4           0  0  0
   -1.1852   -0.0105    6.5428 C   0  0  0  0  0  4           0  0  0
   -2.0364    0.0012    5.4141 C   0  0  0  0  0  4           0  0  0
   -1.5275    0.0005    4.0481 C   0  0  0  0  0  4           0  0  0
   -0.5412   -0.0000    1.3973 C   0  0  0  0  0  4           0  0  0
   -1.7366    0.0046    7.8347 C   0  0  0  0  0  4           0  0  0
   -3.4287    0.0199    5.6248 C   0  0  0  0  0  4           0  0  0
   -1.2884   -1.2046    3.3712 C   0  0  0  0  0  4           0  0  0
   -1.2624    1.2052    3.3807 C   0  0  0  0  0  4           0  0  0
   -0.7987   -1.2048    2.0620 C   0  0  0  0  0  4           0  0  0
   -0.7726    1.2049    2.0716 C   0  0  0  0  0  4           0  0  0
   -3.1182    0.0232    8.0176 C   0  0  0  0  0  4           0  0  0
   -3.9641    0.0294    6.9137 C   0  0  0  0  0  4           0  0  0
    1.7647    2.5088   -0.0532 C   0  0  0  0  0  4           0  0  0
    0.0000    0.0000    0.0000 C   0  0  0  0  0  4           0  0  0
    1.7706   -2.5209    0.0365 C   0  0  0  0  0  4           0  0  0
    2.5073   -3.3979   -0.9697 C   0  0  0  0  0  4           0  0  0
    2.3660   -2.9410   -2.4224 C   0  0  0  0  0  4           0  0  0
    3.1127   -3.8374   -3.3989 C   0  0  0  0  0  4           0  0  0
  1  9  1  0     0  0
  2 25  1  0     0  0
  3  4  2  0     0  0
  3  5  1  0     0  0
  4  6  1  0     0  0
  5 10  1  0     0  0
  6 10  2  0     0  0
  7 11  1  0     0  0
  7 12  1  0     0  0
  7 26  1  0     0  0
  8  9  1  0     0  0
  8 11  2  0     0  0
  9 12  2  0     0  0
 10 13  1  0     0  0
 11 27  1  0     0  0
 12 25  1  0     0  0
 13 14  1  0     0  0
 13 17  2  0     0  0
 14 15  1  0     0  0
 14 18  2  0     0  0
 15 19  2  0     0  0
 15 20  1  0     0  0
 16 21  2  0     0  0
 16 22  1  0     0  0
 16 26  1  0     0  0
 17 23  1  0     0  0
 18 24  1  0     0  0
 19 21  1  0     0  0
 20 22  2  0     0  0
 23 24  2  0     0  0
 27 28  1  0     0  0
 28 29  1  0     0  0
 29 30  1  0     0  0
M  END
> <standard_type>
pIC50

> <# Confs.>
25

> <canonical_smiles>
IC(N=C1CCCC)=C(CO)N1CC2=CC=C(C3=CC=CC=C3C4=NN=NN4)C=C2

> <standard_relation>
=

> <Publication_ID>
nan

> <predicted_activity_value>
7.6777807052660805

> <actual_activity_value>
7.698970004336019

> <Compound>
3

> <standard_units>
nM

> hash
15855483879499829441

$$$$
3_
XXILIB    08252103513D 0   0.00000     0.00000

 30 33  0     1  0            999 V2000
    5.3113   -1.6775    0.1422 I   0  0  0  0  0  1           0  0  0
    0.7385   -2.6146   -0.9240 O   0  0  0  0  0  2           0  0  0
   -5.3910   -1.4412    2.9777 N   0  0  0  0  0  3           0  0  0
   -5.3189   -2.5916    3.6333 N   0  0  0  0  0  3           0  0  0
   -4.6472   -0.5866    3.6928 N   0  0  0  0  0  3           0  0  0
   -4.5362   -2.4722    4.7581 N   0  0  0  0  0  3           0  0  0
    1.4524   -0.0000    0.0000 N   0  0  0  0  0  3           0  0  0
    3.5360    0.7717    0.0359 N   0  0  0  0  0  3           0  0  0
    3.5433   -0.5951    0.0627 C   0  0  0  0  0  4           0  0  0
   -4.1215   -1.2207    4.7857 C   0  0  0  0  0  4           0  0  0
    2.2650    1.1177    0.0000 C   0  0  0  0  0  4           0  0  0
    2.2657   -1.1179    0.0387 C   0  0  0  0  0  4           0  0  0
   -3.2747   -0.5838    5.7647 C   0  0  0  0  0  4           0  0  0
   -2.0364    0.0012    5.4141 C   0  0  0  0  0  4           0  0  0
   -1.5275    0.0005    4.0481 C   0  0  0  0  0  4           0  0  0
   -0.5412    0.0000    1.3973 C   0  0  0  0  0  4           0  0  0
   -3.7044   -0.5629    7.1019 C   0  0  0  0  0  4           0  0  0
   -1.2671    0.6012    6.4297 C   0  0  0  0  0  4           0  0  0
   -1.2884   -1.2046    3.3712 C   0  0  0  0  0  4           0  0  0
   -1.2624    1.2052    3.3807 C   0  0  0  0  0  4           0  0  0
   -0.7987   -1.2048    2.0620 C   0  0  0  0  0  4           0  0  0
   -0.7726    1.2049    2.0716 C   0  0  0  0  0  4           0  0  0
   -2.9250    0.0369    8.0896 C   0  0  0  0  0  4           0  0  0
   -1.7078    0.6199    7.7539 C   0  0  0  0  0  4           0  0  0
    1.7647   -2.5088    0.0532 C   0  0  0  0  0  4           0  0  0
    0.0000   -0.0000    0.0000 C   0  0  0  0  0  4           0  0  0
    1.7706    2.5209   -0.0365 C   0  0  0  0  0  4           0  0  0
    2.5557    3.3627   -1.0361 C   0  0  0  0  0  4           0  0  0
    2.4842    2.8551   -2.4771 C   0  0  0  0  0  4           0  0  0
    3.2778    3.7174   -3.4473 C   0  0  0  0  0  4           0  0  0
  1  9  1  0     0  0
  2 25  1  0     0  0
  3  4  2  0     0  0
  3  5  1  0     0  0
  4  6  1  0     0  0
  5 10  1  0     0  0
  6 10  2  0     0  0
  7 11  1  0     0  0
  7 12  1  0     0  0
  7 26  1  0     0  0
  8  9  1  0     0  0
  8 11  2  0     0  0
  9 12  2  0     0  0
 10 13  1  0     0  0
 11 27  1  0     0  0
 12 25  1  0     0  0
 13 14  1  0     0  0
 13 17  2  0     0  0
 14 15  1  0     0  0
 14 18  2  0     0  0
 15 19  2  0     0  0
 15 20  1  0     0  0
 16 21  2  0     0  0
 16 22  1  0     0  0
 16 26  1  0     0  0
 17 23  1  0     0  0
 18 24  1  0     0  0
 19 21  1  0     0  0
 20 22  2  0     0  0
 23 24  2  0     0  0
 27 28  1  0     0  0
 28 29  1  0     0  0
 29 30  1  0     0  0
M  END
> <standard_type>
pIC50

> <# Confs.>
25

> <canonical_smiles>
IC(N=C1CCCC)=C(CO)N1CC2=CC=C(C3=CC=CC=C3C4=NN=NN4)C=C2

> <standard_relation>
=

> <Publication_ID>
nan

> <predicted_activity_value>
7.6777807052660805

> <actual_activity_value>
7.698970004336019

> <Compound>
3

> <standard_units>
nM

> hash
15855483879499829441

$$$$
3_
XXILIB    08252103513D 0   0.00000     0.00000

 30 33  0     1  0            999 V2000
    5.3113   -1.6775    0.1422 I   0  0  0  0  0  1           0  0  0
    0.7385   -2.6146   -0.9240 O   0  0  0  0  0  2           0  0  0
   -5.3910   -1.4412    2.9777 N   0  0  0  0  0  3           0  0  0
   -5.3189   -2.5916    3.6333 N   0  0  0  0  0  3           0  0  0
   -4.6472   -0.5866    3.6928 N   0  0  0  0  0  3           0  0  0
   -4.5362   -2.4722    4.7581 N   0  0  0  0  0  3           0  0  0
    1.4524   -0.0000    0.0000 N   0  0  0  0  0  3           0  0  0
    3.5360    0.7717    0.0359 N   0  0  0  0  0  3           0  0  0
    3.5433   -0.5951    0.0627 C   0  0  0  0  0  4           0  0  0
   -4.1215   -1.2207    4.7857 C   0  0  0  0  0  4           0  0  0
    2.2650    1.1177    0.0000 C   0  0  0  0  0  4           0  0  0
    2.2657   -1.1179    0.0387 C   0  0  0  0  0  4           0  0  0
   -3.2747   -0.5838    5.7647 C   0  0  0  0  0  4           0  0  0
   -2.0364    0.0012    5.4141 C   0  0  0  0  0  4           0  0  0
   -1.5275    0.0005    4.0481 C   0  0  0  0  0  4           0  0  0
   -0.5412    0.0000    1.3973 C   0  0  0  0  0  4           0  0  0
   -3.7044   -0.5629    7.1019 C   0  0  0  0  0  4           0  0  0
   -1.2671    0.6012    6.4297 C   0  0  0  0  0  4           0  0  0
   -1.2884   -1.2046    3.3712 C   0  0  0  0  0  4           0  0  0
   -1.2624    1.2052    3.3807 C   0  0  0  0  0  4           0  0  0
   -0.7987   -1.2048    2.0620 C   0  0  0  0  0  4           0  0  0
   -0.7726    1.2049    2.0716 C   0  0  0  0  0  4           0  0  0
   -2.9250    0.0369    8.0896 C   0  0  0  0  0  4           0  0  0
   -1.7078    0.6199    7.7539 C   0  0  0  0  0  4           0  0  0
    1.7647   -2.5088    0.0532 C   0  0  0  0  0  4           0  0  0
    0.0000   -0.0000    0.0000 C   0  0  0  0  0  4           0  0  0
    1.7706    2.5209   -0.0365 C   0  0  0  0  0  4           0  0  0
    2.5557    3.3627   -1.0361 C   0  0  0  0  0  4           0  0  0
    2.0990    4.8196   -1.1252 C   0  0  0  0  0  4           0  0  0
    2.9028    5.6303   -2.1310 C   0  0  0  0  0  4           0  0  0
  1  9  1  0     0  0
  2 25  1  0     0  0
  3  4  2  0     0  0
  3  5  1  0     0  0
  4  6  1  0     0  0
  5 10  1  0     0  0
  6 10  2  0     0  0
  7 11  1  0     0  0
  7 12  1  0     0  0
  7 26  1  0     0  0
  8  9  1  0     0  0
  8 11  2  0     0  0
  9 12  2  0     0  0
 10 13  1  0     0  0
 11 27  1  0     0  0
 12 25  1  0     0  0
 13 14  1  0     0  0
 13 17  2  0     0  0
 14 15  1  0     0  0
 14 18  2  0     0  0
 15 19  2  0     0  0
 15 20  1  0     0  0
 16 21  2  0     0  0
 16 22  1  0     0  0
 16 26  1  0     0  0
 17 23  1  0     0  0
 18 24  1  0     0  0
 19 21  1  0     0  0
 20 22  2  0     0  0
 23 24  2  0     0  0
 27 28  1  0     0  0
 28 29  1  0     0  0
 29 30  1  0     0  0
M  END
> <standard_type>
pIC50

> <# Confs.>
25

> <canonical_smiles>
IC(N=C1CCCC)=C(CO)N1CC2=CC=C(C3=CC=CC=C3C4=NN=NN4)C=C2

> <standard_relation>
=

> <Publication_ID>
nan

> <predicted_activity_value>
7.6777807052660805

> <actual_activity_value>
7.698970004336019

> <Compound>
3

> <standard_units>
nM

> hash
15855483879499829441

$$$$
3_
XXILIB    08252103513D 0   0.00000     0.00000

 30 33  0     1  0            999 V2000
    5.3113    1.6775   -0.1422 I   0  0  0  0  0  1           0  0  0
    1.6464    2.9455    1.2939 O   0  0  0  0  0  2           0  0  0
   -5.3910   -1.4412    2.9777 N   0  0  0  0  0  3           0  0  0
   -5.3189   -2.5916    3.6333 N   0  0  0  0  0  3           0  0  0
   -4.6472   -0.5866    3.6928 N   0  0  0  0  0  3           0  0  0
   -4.5362   -2.4722    4.7581 N   0  0  0  0  0  3           0  0  0
    1.4524   -0.0000   -0.0000 N   0  0  0  0  0  3           0  0  0
    3.5360   -0.7717   -0.0359 N   0  0  0  0  0  3           0  0  0
    3.5433    0.5951   -0.0627 C   0  0  0  0  0  4           0  0  0
   -4.1215   -1.2207    4.7857 C   0  0  0  0  0  4           0  0  0
    2.2650   -1.1177   -0.0000 C   0  0  0  0  0  4           0  0  0
    2.2657    1.1179   -0.0387 C   0  0  0  0  0  4           0  0  0
   -3.2747   -0.5838    5.7647 C   0  0  0  0  0  4           0  0  0
   -2.0364    0.0012    5.4141 C   0  0  0  0  0  4           0  0  0
   -1.5275    0.0005    4.0481 C   0  0  0  0  0  4           0  0  0
   -0.5412    0.0000    1.3973 C   0  0  0  0  0  4           0  0  0
   -3.7044   -0.5629    7.1019 C   0  0  0  0  0  4           0  0  0
   -1.2671    0.6012    6.4297 C   0  0  0  0  0  4           0  0  0
   -1.2884   -1.2046    3.3712 C   0  0  0  0  0  4           0  0  0
   -1.2624    1.2052    3.3807 C   0  0  0  0  0  4           0  0  0
   -0.7987   -1.2048    2.0620 C   0  0  0  0  0  4           0  0  0
   -0.7726    1.2049    2.0716 C   0  0  0  0  0  4           0  0  0
   -2.9250    0.0369    8.0896 C   0  0  0  0  0  4           0  0  0
   -1.7078    0.6199    7.7539 C   0  0  0  0  0  4           0  0  0
    1.7647    2.5088   -0.0532 C   0  0  0  0  0  4           0  0  0
    0.0000   -0.0000    0.0000 C   0  0  0  0  0  4           0  0  0
    1.7706   -2.5209    0.0365 C   0  0  0  0  0  4           0  0  0
    2.5557   -3.3627    1.0361 C   0  0  0  0  0  4           0  0  0
    2.4842   -2.8551    2.4771 C   0  0  0  0  0  4           0  0  0
    3.2778   -3.7174    3.4473 C   0  0  0  0  0  4           0  0  0
  1  9  1  0     0  0
  2 25  1  0     0  0
  3  4  2  0     0  0
  3  5  1  0     0  0
  4  6  1  0     0  0
  5 10  1  0     0  0
  6 10  2  0     0  0
  7 11  1  0     0  0
  7 12  1  0     0  0
  7 26  1  0     0  0
  8  9  1  0     0  0
  8 11  2  0     0  0
  9 12  2  0     0  0
 10 13  1  0     0  0
 11 27  1  0     0  0
 12 25  1  0     0  0
 13 14  1  0     0  0
 13 17  2  0     0  0
 14 15  1  0     0  0
 14 18  2  0     0  0
 15 19  2  0     0  0
 15 20  1  0     0  0
 16 21  2  0     0  0
 16 22  1  0     0  0
 16 26  1  0     0  0
 17 23  1  0     0  0
 18 24  1  0     0  0
 19 21  1  0     0  0
 20 22  2  0     0  0
 23 24  2  0     0  0
 27 28  1  0     0  0
 28 29  1  0     0  0
 29 30  1  0     0  0
M  END
> <standard_type>
pIC50

> <# Confs.>
25

> <canonical_smiles>
IC(N=C1CCCC)=C(CO)N1CC2=CC=C(C3=CC=CC=C3C4=NN=NN4)C=C2

> <standard_relation>
=

> <Publication_ID>
nan

> <predicted_activity_value>
7.6777807052660805

> <actual_activity_value>
7.698970004336019

> <Compound>
3

> <standard_units>
nM

> hash
15855483879499829441

$$$$
3_
XXILIB    08252103513D 0   0.00000     0.00000

 30 33  0     1  0            999 V2000
    5.3113   -1.6775    0.1422 I   0  0  0  0  0  1           0  0  0
    1.6464   -2.9455   -1.2939 O   0  0  0  0  0  2           0  0  0
    1.8494   -1.7750    5.7823 N   0  0  0  0  0  3           0  0  0
    2.1962   -0.7466    6.5443 N   0  0  0  0  0  3           0  0  0
    0.5146   -1.7062    5.6922 N   0  0  0  0  0  3           0  0  0
    1.0916   -0.0276    6.9380 N   0  0  0  0  0  3           0  0  0
    1.4524   -0.0000    0.0000 N   0  0  0  0  0  3           0  0  0
    3.5360    0.7717    0.0359 N   0  0  0  0  0  3           0  0  0
    3.5433   -0.5951    0.0627 C   0  0  0  0  0  4           0  0  0
    0.0496   -0.6321    6.4013 C   0  0  0  0  0  4           0  0  0
    2.2650    1.1177    0.0000 C   0  0  0  0  0  4           0  0  0
    2.2657   -1.1179    0.0387 C   0  0  0  0  0  4           0  0  0
   -1.3434   -0.2740    6.5128 C   0  0  0  0  0  4           0  0  0
   -2.1274    0.0392    5.3788 C   0  0  0  0  0  4           0  0  0
   -1.5880    0.0263    4.0246 C   0  0  0  0  0  4           0  0  0
   -0.5412   -0.0000    1.3973 C   0  0  0  0  0  4           0  0  0
   -1.9180   -0.2306    7.7939 C   0  0  0  0  0  4           0  0  0
   -3.4796    0.3816    5.5727 C   0  0  0  0  0  4           0  0  0
   -0.5201    0.8633    3.6688 C   0  0  0  0  0  4           0  0  0
   -2.1271   -0.8211    3.0458 C   0  0  0  0  0  4           0  0  0
   -0.0043    0.8520    2.3697 C   0  0  0  0  0  4           0  0  0
   -1.6113   -0.8323    1.7468 C   0  0  0  0  0  4           0  0  0
   -3.2589    0.1114    7.9603 C   0  0  0  0  0  4           0  0  0
   -4.0399    0.4160    6.8506 C   0  0  0  0  0  4           0  0  0
    1.7647   -2.5088    0.0532 C   0  0  0  0  0  4           0  0  0
    0.0000    0.0000    0.0000 C   0  0  0  0  0  4           0  0  0
    1.7706    2.5209   -0.0365 C   0  0  0  0  0  4           0  0  0
    2.5557    3.3627   -1.0361 C   0  0  0  0  0  4           0  0  0
    2.4842    2.8551   -2.4771 C   0  0  0  0  0  4           0  0  0
    3.2778    3.7174   -3.4473 C   0  0  0  0  0  4           0  0  0
  1  9  1  0     0  0
  2 25  1  0     0  0
  3  4  2  0     0  0
  3  5  1  0     0  0
  4  6  1  0     0  0
  5 10  1  0     0  0
  6 10  2  0     0  0
  7 11  1  0     0  0
  7 12  1  0     0  0
  7 26  1  0     0  0
  8  9  1  0     0  0
  8 11  2  0     0  0
  9 12  2  0     0  0
 10 13  1  0     0  0
 11 27  1  0     0  0
 12 25  1  0     0  0
 13 14  1  0     0  0
 13 17  2  0     0  0
 14 15  1  0     0  0
 14 18  2  0     0  0
 15 19  2  0     0  0
 15 20  1  0     0  0
 16 21  2  0     0  0
 16 22  1  0     0  0
 16 26  1  0     0  0
 17 23  1  0     0  0
 18 24  1  0     0  0
 19 21  1  0     0  0
 20 22  2  0     0  0
 23 24  2  0     0  0
 27 28  1  0     0  0
 28 29  1  0     0  0
 29 30  1  0     0  0
M  END
> <standard_type>
pIC50

> <# Confs.>
25

> <canonical_smiles>
IC(N=C1CCCC)=C(CO)N1CC2=CC=C(C3=CC=CC=C3C4=NN=NN4)C=C2

> <standard_relation>
=

> <Publication_ID>
nan

> <predicted_activity_value>
7.6777807052660805

> <actual_activity_value>
7.698970004336019

> <Compound>
3

> <standard_units>
nM

> hash
15855483879499829441

$$$$
3_
XXILIB    08252103513D 0   0.00000     0.00000

 30 33  0     1  0            999 V2000
    5.3113   -1.6775    0.1422 I   0  0  0  0  0  1           0  0  0
    1.6464   -2.9455   -1.2939 O   0  0  0  0  0  2           0  0  0
   -3.9587    3.5139    3.4186 N   0  0  0  0  0  3           0  0  0
   -5.1397    2.9350    3.5874 N   0  0  0  0  0  3           0  0  0
   -3.1186    2.8244    4.2020 N   0  0  0  0  0  3           0  0  0
   -5.0544    1.8850    4.4719 N   0  0  0  0  0  3           0  0  0
    1.4524   -0.0000   -0.0000 N   0  0  0  0  0  3           0  0  0
    3.5360    0.7717    0.0359 N   0  0  0  0  0  3           0  0  0
    3.5433   -0.5951    0.0627 C   0  0  0  0  0  4           0  0  0
   -3.7919    1.8233    4.8479 C   0  0  0  0  0  4           0  0  0
    2.2650    1.1177    0.0000 C   0  0  0  0  0  4           0  0  0
    2.2657   -1.1179    0.0387 C   0  0  0  0  0  4           0  0  0
   -3.1809    0.8970    5.7698 C   0  0  0  0  0  4           0  0  0
   -2.1274    0.0392    5.3788 C   0  0  0  0  0  4           0  0  0
   -1.5880    0.0263    4.0246 C   0  0  0  0  0  4           0  0  0
   -0.5412    0.0000    1.3973 C   0  0  0  0  0  4           0  0  0
   -3.6666    0.8528    7.0871 C   0  0  0  0  0  4           0  0  0
   -1.5864   -0.8382    6.3384 C   0  0  0  0  0  4           0  0  0
   -0.5201    0.8633    3.6688 C   0  0  0  0  0  4           0  0  0
   -2.1271   -0.8211    3.0458 C   0  0  0  0  0  4           0  0  0
   -0.0043    0.8520    2.3697 C   0  0  0  0  0  4           0  0  0
   -1.6113   -0.8323    1.7468 C   0  0  0  0  0  4           0  0  0
   -3.1148   -0.0247    8.0189 C   0  0  0  0  0  4           0  0  0
   -2.0745   -0.8688    7.6457 C   0  0  0  0  0  4           0  0  0
    1.7647   -2.5088    0.0532 C   0  0  0  0  0  4           0  0  0
    0.0000    0.0000   -0.0000 C   0  0  0  0  0  4           0  0  0
    1.7706    2.5209   -0.0365 C   0  0  0  0  0  4           0  0  0
    1.6197    3.0217   -1.4685 C   0  0  0  0  0  4           0  0  0
    1.1140    4.4607   -1.5802 C   0  0  0  0  0  4           0  0  0
    0.9750    4.9279   -3.0215 C   0  0  0  0  0  4           0  0  0
  1  9  1  0     0  0
  2 25  1  0     0  0
  3  4  2  0     0  0
  3  5  1  0     0  0
  4  6  1  0     0  0
  5 10  1  0     0  0
  6 10  2  0     0  0
  7 11  1  0     0  0
  7 12  1  0     0  0
  7 26  1  0     0  0
  8  9  1  0     0  0
  8 11  2  0     0  0
  9 12  2  0     0  0
 10 13  1  0     0  0
 11 27  1  0     0  0
 12 25  1  0     0  0
 13 14  1  0     0  0
 13 17  2  0     0  0
 14 15  1  0     0  0
 14 18  2  0     0  0
 15 19  2  0     0  0
 15 20  1  0     0  0
 16 21  2  0     0  0
 16 22  1  0     0  0
 16 26  1  0     0  0
 17 23  1  0     0  0
 18 24  1  0     0  0
 19 21  1  0     0  0
 20 22  2  0     0  0
 23 24  2  0     0  0
 27 28  1  0     0  0
 28 29  1  0     0  0
 29 30  1  0     0  0
M  END
> <standard_type>
pIC50

> <# Confs.>
25

> <canonical_smiles>
IC(N=C1CCCC)=C(CO)N1CC2=CC=C(C3=CC=CC=C3C4=NN=NN4)C=C2

> <standard_relation>
=

> <Publication_ID>
nan

> <predicted_activity_value>
7.6777807052660805

> <actual_activity_value>
7.698970004336019

> <Compound>
3

> <standard_units>
nM

> hash
15855483879499829441

$$$$
3_
XXILIB    08252103513D 0   0.00000     0.00000

 30 33  0     1  0            999 V2000
    5.3113   -1.6775    0.1422 I   0  0  0  0  0  1           0  0  0
    1.6464   -2.9455   -1.2939 O   0  0  0  0  0  2           0  0  0
    1.4569   -2.4805    5.6242 N   0  0  0  0  0  3           0  0  0
    0.6696   -3.4950    5.9551 N   0  0  0  0  0  3           0  0  0
    0.6909   -1.3892    5.7548 N   0  0  0  0  0  3           0  0  0
   -0.5890   -3.0549    6.2935 N   0  0  0  0  0  3           0  0  0
    1.4524    0.0000    0.0000 N   0  0  0  0  0  3           0  0  0
    3.5360    0.7717    0.0359 N   0  0  0  0  0  3           0  0  0
    3.5433   -0.5951    0.0627 C   0  0  0  0  0  4           0  0  0
   -0.5653   -1.7424    6.1670 C   0  0  0  0  0  4           0  0  0
    2.2650    1.1177    0.0000 C   0  0  0  0  0  4           0  0  0
    2.2657   -1.1179    0.0387 C   0  0  0  0  0  4           0  0  0
   -1.6367   -0.8051    6.4011 C   0  0  0  0  0  4           0  0  0
   -2.1274    0.0392    5.3788 C   0  0  0  0  0  4           0  0  0
   -1.5880    0.0263    4.0246 C   0  0  0  0  0  4           0  0  0
   -0.5412    0.0000    1.3973 C   0  0  0  0  0  4           0  0  0
   -2.1893   -0.7360    7.6906 C   0  0  0  0  0  4           0  0  0
   -3.1741    0.9288    5.6892 C   0  0  0  0  0  4           0  0  0
   -0.5201    0.8633    3.6688 C   0  0  0  0  0  4           0  0  0
   -2.1271   -0.8211    3.0458 C   0  0  0  0  0  4           0  0  0
   -0.0043    0.8520    2.3697 C   0  0  0  0  0  4           0  0  0
   -1.6113   -0.8323    1.7468 C   0  0  0  0  0  4           0  0  0
   -3.2249    0.1531    7.9734 C   0  0  0  0  0  4           0  0  0
   -3.7182    0.9840    6.9733 C   0  0  0  0  0  4           0  0  0
    1.7647   -2.5088    0.0532 C   0  0  0  0  0  4           0  0  0
    0.0000    0.0000    0.0000 C   0  0  0  0  0  4           0  0  0
    1.7706    2.5209   -0.0365 C   0  0  0  0  0  4           0  0  0
    2.5073    3.3979    0.9697 C   0  0  0  0  0  4           0  0  0
    2.0481    4.8566    0.9855 C   0  0  0  0  0  4           0  0  0
    2.8031    5.7027    1.9999 C   0  0  0  0  0  4           0  0  0
  1  9  1  0     0  0
  2 25  1  0     0  0
  3  4  2  0     0  0
  3  5  1  0     0  0
  4  6  1  0     0  0
  5 10  1  0     0  0
  6 10  2  0     0  0
  7 11  1  0     0  0
  7 12  1  0     0  0
  7 26  1  0     0  0
  8  9  1  0     0  0
  8 11  2  0     0  0
  9 12  2  0     0  0
 10 13  1  0     0  0
 11 27  1  0     0  0
 12 25  1  0     0  0
 13 14  1  0     0  0
 13 17  2  0     0  0
 14 15  1  0     0  0
 14 18  2  0     0  0
 15 19  2  0     0  0
 15 20  1  0     0  0
 16 21  2  0     0  0
 16 22  1  0     0  0
 16 26  1  0     0  0
 17 23  1  0     0  0
 18 24  1  0     0  0
 19 21  1  0     0  0
 20 22  2  0     0  0
 23 24  2  0     0  0
 27 28  1  0     0  0
 28 29  1  0     0  0
 29 30  1  0     0  0
M  END
> <standard_type>
pIC50

> <# Confs.>
25

> <canonical_smiles>
IC(N=C1CCCC)=C(CO)N1CC2=CC=C(C3=CC=CC=C3C4=NN=NN4)C=C2

> <standard_relation>
=

> <Publication_ID>
nan

> <predicted_activity_value>
7.6777807052660805

> <actual_activity_value>
7.698970004336019

> <Compound>
3

> <standard_units>
nM

> hash
15855483879499829441

$$$$
3_
XXILIB    08252103513D 0   0.00000     0.00000

 30 33  0     1  0            999 V2000
    5.3113   -1.6775    0.1422 I   0  0  0  0  0  1           0  0  0
    1.6464   -2.9455   -1.2939 O   0  0  0  0  0  2           0  0  0
    1.8494   -1.7750    5.7823 N   0  0  0  0  0  3           0  0  0
    2.1962   -0.7466    6.5443 N   0  0  0  0  0  3           0  0  0
    0.5146   -1.7062    5.6922 N   0  0  0  0  0  3           0  0  0
    1.0916   -0.0276    6.9380 N   0  0  0  0  0  3           0  0  0
    1.4524    0.0000    0.0000 N   0  0  0  0  0  3           0  0  0
    3.5360    0.7717    0.0359 N   0  0  0  0  0  3           0  0  0
    3.5433   -0.5951    0.0627 C   0  0  0  0  0  4           0  0  0
    0.0496   -0.6321    6.4013 C   0  0  0  0  0  4           0  0  0
    2.2650    1.1177    0.0000 C   0  0  0  0  0  4           0  0  0
    2.2657   -1.1179    0.0387 C   0  0  0  0  0  4           0  0  0
   -1.3434   -0.2740    6.5128 C   0  0  0  0  0  4           0  0  0
   -2.1274    0.0392    5.3788 C   0  0  0  0  0  4           0  0  0
   -1.5880    0.0263    4.0246 C   0  0  0  0  0  4           0  0  0
   -0.5412   -0.0000    1.3973 C   0  0  0  0  0  4           0  0  0
   -1.9180   -0.2306    7.7939 C   0  0  0  0  0  4           0  0  0
   -3.4796    0.3816    5.5727 C   0  0  0  0  0  4           0  0  0
   -0.5201    0.8633    3.6688 C   0  0  0  0  0  4           0  0  0
   -2.1271   -0.8211    3.0458 C   0  0  0  0  0  4           0  0  0
   -0.0043    0.8520    2.3697 C   0  0  0  0  0  4           0  0  0
   -1.6113   -0.8323    1.7468 C   0  0  0  0  0  4           0  0  0
   -3.2589    0.1114    7.9603 C   0  0  0  0  0  4           0  0  0
   -4.0399    0.4160    6.8506 C   0  0  0  0  0  4           0  0  0
    1.7647   -2.5088    0.0532 C   0  0  0  0  0  4           0  0  0
    0.0000    0.0000    0.0000 C   0  0  0  0  0  4           0  0  0
    1.7706    2.5209   -0.0365 C   0  0  0  0  0  4           0  0  0
    2.5073    3.3979    0.9697 C   0  0  0  0  0  4           0  0  0
    2.0481    4.8566    0.9855 C   0  0  0  0  0  4           0  0  0
    2.8031    5.7027    1.9999 C   0  0  0  0  0  4           0  0  0
  1  9  1  0     0  0
  2 25  1  0     0  0
  3  4  2  0     0  0
  3  5  1  0     0  0
  4  6  1  0     0  0
  5 10  1  0     0  0
  6 10  2  0     0  0
  7 11  1  0     0  0
  7 12  1  0     0  0
  7 26  1  0     0  0
  8  9  1  0     0  0
  8 11  2  0     0  0
  9 12  2  0     0  0
 10 13  1  0     0  0
 11 27  1  0     0  0
 12 25  1  0     0  0
 13 14  1  0     0  0
 13 17  2  0     0  0
 14 15  1  0     0  0
 14 18  2  0     0  0
 15 19  2  0     0  0
 15 20  1  0     0  0
 16 21  2  0     0  0
 16 22  1  0     0  0
 16 26  1  0     0  0
 17 23  1  0     0  0
 18 24  1  0     0  0
 19 21  1  0     0  0
 20 22  2  0     0  0
 23 24  2  0     0  0
 27 28  1  0     0  0
 28 29  1  0     0  0
 29 30  1  0     0  0
M  END
> <standard_type>
pIC50

> <# Confs.>
25

> <canonical_smiles>
IC(N=C1CCCC)=C(CO)N1CC2=CC=C(C3=CC=CC=C3C4=NN=NN4)C=C2

> <standard_relation>
=

> <Publication_ID>
nan

> <predicted_activity_value>
7.6777807052660805

> <actual_activity_value>
7.698970004336019

> <Compound>
3

> <standard_units>
nM

> hash
15855483879499829441

$$$$
3_
XXILIB    08252103513D 0   0.00000     0.00000

 30 33  0     1  0            999 V2000
    5.3113    1.6775   -0.1422 I   0  0  0  0  0  1           0  0  0
    1.6464    2.9455    1.2939 O   0  0  0  0  0  2           0  0  0
   -5.5751   -0.6431    2.9003 N   0  0  0  0  0  3           0  0  0
   -6.0529    0.5088    3.3511 N   0  0  0  0  0  3           0  0  0
   -4.5596   -0.9431    3.7210 N   0  0  0  0  0  3           0  0  0
   -5.3476    0.9410    4.4502 N   0  0  0  0  0  3           0  0  0
    1.4524   -0.0000    0.0000 N   0  0  0  0  0  3           0  0  0
    3.5360   -0.7717   -0.0359 N   0  0  0  0  0  3           0  0  0
    3.5433    0.5951   -0.0627 C   0  0  0  0  0  4           0  0  0
   -4.4209    0.0297    4.6735 C   0  0  0  0  0  4           0  0  0
    2.2650   -1.1177    0.0000 C   0  0  0  0  0  4           0  0  0
    2.2657    1.1179   -0.0387 C   0  0  0  0  0  4           0  0  0
   -3.4185    0.0136    5.7109 C   0  0  0  0  0  4           0  0  0
   -2.0364    0.0012    5.4141 C   0  0  0  0  0  4           0  0  0
   -1.5275    0.0005    4.0481 C   0  0  0  0  0  4           0  0  0
   -0.5412   -0.0000    1.3973 C   0  0  0  0  0  4           0  0  0
   -3.8468   -0.0002    7.0486 C   0  0  0  0  0  4           0  0  0
   -1.1213   -0.0169    6.4844 C   0  0  0  0  0  4           0  0  0
   -1.2884   -1.2046    3.3712 C   0  0  0  0  0  4           0  0  0
   -1.2624    1.2052    3.3807 C   0  0  0  0  0  4           0  0  0
   -0.7987   -1.2048    2.0620 C   0  0  0  0  0  4           0  0  0
   -0.7726    1.2049    2.0716 C   0  0  0  0  0  4           0  0  0
   -2.9216   -0.0183    8.0909 C   0  0  0  0  0  4           0  0  0
   -1.5597   -0.0252    7.8095 C   0  0  0  0  0  4           0  0  0
    1.7647    2.5088   -0.0532 C   0  0  0  0  0  4           0  0  0
    0.0000    0.0000   -0.0000 C   0  0  0  0  0  4           0  0  0
    1.7706   -2.5209    0.0365 C   0  0  0  0  0  4           0  0  0
    2.5073   -3.3979   -0.9697 C   0  0  0  0  0  4           0  0  0
    2.0481   -4.8566   -0.9855 C   0  0  0  0  0  4           0  0  0
    2.8031   -5.7027   -1.9999 C   0  0  0  0  0  4           0  0  0
  1  9  1  0     0  0
  2 25  1  0     0  0
  3  4  2  0     0  0
  3  5  1  0     0  0
  4  6  1  0     0  0
  5 10  1  0     0  0
  6 10  2  0     0  0
  7 11  1  0     0  0
  7 12  1  0     0  0
  7 26  1  0     0  0
  8  9  1  0     0  0
  8 11  2  0     0  0
  9 12  2  0     0  0
 10 13  1  0     0  0
 11 27  1  0     0  0
 12 25  1  0     0  0
 13 14  1  0     0  0
 13 17  2  0     0  0
 14 15  1  0     0  0
 14 18  2  0     0  0
 15 19  2  0     0  0
 15 20  1  0     0  0
 16 21  2  0     0  0
 16 22  1  0     0  0
 16 26  1  0     0  0
 17 23  1  0     0  0
 18 24  1  0     0  0
 19 21  1  0     0  0
 20 22  2  0     0  0
 23 24  2  0     0  0
 27 28  1  0     0  0
 28 29  1  0     0  0
 29 30  1  0     0  0
M  END
> <standard_type>
pIC50

> <# Confs.>
25

> <canonical_smiles>
IC(N=C1CCCC)=C(CO)N1CC2=CC=C(C3=CC=CC=C3C4=NN=NN4)C=C2

> <standard_relation>
=

> <Publication_ID>
nan

> <predicted_activity_value>
7.6777807052660805

> <actual_activity_value>
7.698970004336019

> <Compound>
3

> <standard_units>
nM

> hash
15855483879499829441

$$$$
19_
XXILIB    08252103513D 0   0.00000     0.00000

 38 41  0     1  0            999 V2000
    5.0019    1.4987   -0.0650 Cl  0  0  0  0  0  1           0  0  0
   -5.9198    0.1309    6.3123 O   0  0  0  0  0  2           0  0  0
    1.2816    2.2961   -2.4208 O   0  0  0  0  0  2           0  0  0
   -2.1965   -2.2271    5.7747 O   0  0  0  0  0  2           0  0  0
    1.7888    4.3459   -1.4983 O   0  0  0  0  0  2           0  0  0
   -5.1077   -1.9657    6.0195 O   0  0  0  0  0  2           0  0  0
    1.4522   -0.0000   -0.0000 N   0  0  0  0  0  3           0  0  0
    3.5396   -0.7595   -0.0143 N   0  0  0  0  0  3           0  0  0
   -2.0170    0.0436    5.3535 N   0  0  0  0  0  3           0  0  0
    3.5478    0.6103   -0.0330 C   0  0  0  0  0  4           0  0  0
    2.2701   -1.1133    0.0000 C   0  0  0  0  0  4           0  0  0
    2.2624    1.1179   -0.0275 C   0  0  0  0  0  4           0  0  0
   -1.5247   -0.0054    4.0352 C   0  0  0  0  0  4           0  0  0
   -4.6606   -0.3446    9.0635 C   0  0  0  0  0  4           0  0  0
   -3.7019   -0.2224   10.1018 C   0  0  0  0  0  4           0  0  0
   -4.1936   -0.6138    7.7530 C   0  0  0  0  0  4           0  0  0
   -2.8247   -0.7680    7.4941 C   0  0  0  0  0  4           0  0  0
   -0.5411   -0.0000    1.3972 C   0  0  0  0  0  4           0  0  0
   -1.2877   -1.2124    3.3696 C   0  0  0  0  0  4           0  0  0
   -1.2661    1.2030    3.3807 C   0  0  0  0  0  4           0  0  0
   -6.0256   -0.1870    9.3984 C   0  0  0  0  0  4           0  0  0
   -2.3338   -0.3701    9.8147 C   0  0  0  0  0  4           0  0  0
   -4.1246    0.0465   11.4140 C   0  0  0  0  0  4           0  0  0
   -1.8935   -0.6412    8.5205 C   0  0  0  0  0  4           0  0  0
   -0.7980   -1.2070    2.0606 C   0  0  0  0  0  4           0  0  0
   -0.7744    1.2047    2.0728 C   0  0  0  0  0  4           0  0  0
   -6.4270    0.0784   10.7087 C   0  0  0  0  0  4           0  0  0
   -5.4771    0.1951   11.7153 C   0  0  0  0  0  4           0  0  0
   -5.1538   -0.7639    6.6406 C   0  0  0  0  0  4           0  0  0
    1.5773    2.9971   -1.4622 C   0  0  0  0  0  4           0  0  0
   -2.3183   -1.0571    6.1309 C   0  0  0  0  0  4           0  0  0
    1.6432    4.9565   -2.7842 C   0  0  0  0  0  4           0  0  0
    0.0000    0.0000    0.0000 C   0  0  0  0  0  4           0  0  0
    1.7876   -2.5193    0.0145 C   0  0  0  0  0  4           0  0  0
    1.7697    2.5177   -0.0456 C   0  0  0  0  0  4           0  0  0
    2.5337   -3.3990   -0.9846 C   0  0  0  0  0  4           0  0  0
    2.4088   -2.9408   -2.4381 C   0  0  0  0  0  4           0  0  0
    3.1624   -3.8361   -3.4101 C   0  0  0  0  0  4           0  0  0
  1 10  1  0     0  0
  2 29  2  0     0  0
  3 30  2  0     0  0
  4 31  2  0     0  0
  5 30  1  0     0  0
  5 32  1  0     0  0
  6 29  1  0     0  0
  7 11  1  0     0  0
  7 12  1  0     0  0
  7 33  1  0     0  0
  8 10  1  0     0  0
  8 11  2  0     0  0
  9 13  1  0     0  0
  9 31  1  0     0  0
 10 12  2  0     0  0
 11 34  1  0     0  0
 12 35  1  0     0  0
 13 19  2  0     0  0
 13 20  1  0     0  0
 14 15  1  0     0  0
 14 16  2  0     0  0
 14 21  1  0     0  0
 15 22  2  0     0  0
 15 23  1  0     0  0
 16 17  1  0     0  0
 16 29  1  0     0  0
 17 24  2  0     0  0
 17 31  1  0     0  0
 18 25  2  0     0  0
 18 26  1  0     0  0
 18 33  1  0     0  0
 19 25  1  0     0  0
 20 26  2  0     0  0
 21 27  2  0     0  0
 22 24  1  0     0  0
 23 28  2  0     0  0
 27 28  1  0     0  0
 30 35  1  0     0  0
 34 36  1  0     0  0
 36 37  1  0     0  0
 37 38  1  0     0  0
M  END
> <standard_type>
pIC50

> <# Confs.>
25

> <canonical_smiles>
CCCCC1=NC(Cl)=C(CC(OC)=O)N1CC2=CC=C(NC(C3=CC=C(C=CC=C4)C4=C3C(O)=O)=O)C=C2

> <standard_relation>
=

> <Publication_ID>
nan

> <predicted_activity_value>
5.522878745280337

> <actual_activity_value>
5.236572006437063

> <Compound>
19

> <standard_units>
nM

> hash
9828163350660041123

$$$$
19_
XXILIB    08252103513D 0   0.00000     0.00000

 38 41  0     1  0            999 V2000
    5.0019    1.4987   -0.0650 Cl  0  0  0  0  0  1           0  0  0
   -4.6177   -2.3272    6.2078 O   0  0  0  0  0  2           0  0  0
    1.2816    2.2961   -2.4208 O   0  0  0  0  0  2           0  0  0
   -3.7241    1.5485    5.1831 O   0  0  0  0  0  2           0  0  0
    1.7888    4.3459   -1.4983 O   0  0  0  0  0  2           0  0  0
   -6.2242   -0.7293    6.1263 O   0  0  0  0  0  2           0  0  0
    1.4522   -0.0000   -0.0000 N   0  0  0  0  0  3           0  0  0
    3.5396   -0.7595   -0.0143 N   0  0  0  0  0  3           0  0  0
   -2.0717   -0.0680    5.3323 N   0  0  0  0  0  3           0  0  0
    3.5478    0.6103   -0.0330 C   0  0  0  0  0  4           0  0  0
    2.2701   -1.1133    0.0000 C   0  0  0  0  0  4           0  0  0
    2.2624    1.1179   -0.0275 C   0  0  0  0  0  4           0  0  0
   -1.5846   -0.0213    4.0120 C   0  0  0  0  0  4           0  0  0
   -4.7221   -0.6531    9.0066 C   0  0  0  0  0  4           0  0  0
   -4.0465    0.1388    9.9704 C   0  0  0  0  0  4           0  0  0
   -4.4072   -0.4523    7.6396 C   0  0  0  0  0  4           0  0  0
   -3.4461    0.4920    7.2535 C   0  0  0  0  0  4           0  0  0
   -0.5411    0.0000    1.3972 C   0  0  0  0  0  4           0  0  0
   -2.1127    0.8460    3.0501 C   0  0  0  0  0  4           0  0  0
   -0.5368   -0.8791    3.6631 C   0  0  0  0  0  4           0  0  0
   -5.6723   -1.5934    9.4681 C   0  0  0  0  0  4           0  0  0
   -3.0950    1.0871    9.5571 C   0  0  0  0  0  4           0  0  0
   -4.3324   -0.0285   11.3354 C   0  0  0  0  0  4           0  0  0
   -2.7935    1.2661    8.2082 C   0  0  0  0  0  4           0  0  0
   -1.5939    0.8535    1.7524 C   0  0  0  0  0  4           0  0  0
   -0.0220   -0.8705    2.3641 C   0  0  0  0  0  4           0  0  0
   -5.9420   -1.7468   10.8291 C   0  0  0  0  0  4           0  0  0
   -5.2726   -0.9647   11.7616 C   0  0  0  0  0  4           0  0  0
   -5.0734   -1.2623    6.5993 C   0  0  0  0  0  4           0  0  0
    1.5773    2.9971   -1.4622 C   0  0  0  0  0  4           0  0  0
   -3.0985    0.7106    5.8288 C   0  0  0  0  0  4           0  0  0
    1.6432    4.9565   -2.7842 C   0  0  0  0  0  4           0  0  0
    0.0000    0.0000   -0.0000 C   0  0  0  0  0  4           0  0  0
    1.7876   -2.5193    0.0145 C   0  0  0  0  0  4           0  0  0
    1.7697    2.5177   -0.0456 C   0  0  0  0  0  4           0  0  0
    2.5337   -3.3990   -0.9846 C   0  0  0  0  0  4           0  0  0
    2.4088   -2.9408   -2.4381 C   0  0  0  0  0  4           0  0  0
    3.1624   -3.8361   -3.4101 C   0  0  0  0  0  4           0  0  0
  1 10  1  0     0  0
  2 29  2  0     0  0
  3 30  2  0     0  0
  4 31  2  0     0  0
  5 30  1  0     0  0
  5 32  1  0     0  0
  6 29  1  0     0  0
  7 11  1  0     0  0
  7 12  1  0     0  0
  7 33  1  0     0  0
  8 10  1  0     0  0
  8 11  2  0     0  0
  9 13  1  0     0  0
  9 31  1  0     0  0
 10 12  2  0     0  0
 11 34  1  0     0  0
 12 35  1  0     0  0
 13 19  2  0     0  0
 13 20  1  0     0  0
 14 15  1  0     0  0
 14 16  2  0     0  0
 14 21  1  0     0  0
 15 22  2  0     0  0
 15 23  1  0     0  0
 16 17  1  0     0  0
 16 29  1  0     0  0
 17 24  2  0     0  0
 17 31  1  0     0  0
 18 25  2  0     0  0
 18 26  1  0     0  0
 18 33  1  0     0  0
 19 25  1  0     0  0
 20 26  2  0     0  0
 21 27  2  0     0  0
 22 24  1  0     0  0
 23 28  2  0     0  0
 27 28  1  0     0  0
 30 35  1  0     0  0
 34 36  1  0     0  0
 36 37  1  0     0  0
 37 38  1  0     0  0
M  END
> <standard_type>
pIC50

> <# Confs.>
25

> <canonical_smiles>
CCCCC1=NC(Cl)=C(CC(OC)=O)N1CC2=CC=C(NC(C3=CC=C(C=CC=C4)C4=C3C(O)=O)=O)C=C2

> <standard_relation>
=

> <Publication_ID>
nan

> <predicted_activity_value>
5.522878745280337

> <actual_activity_value>
5.236572006437063

> <Compound>
19

> <standard_units>
nM

> hash
9828163350660041123

$$$$
19_
XXILIB    08252103513D 0   0.00000     0.00000

 38 41  0     1  0            999 V2000
    5.0019    1.4987   -0.0650 Cl  0  0  0  0  0  1           0  0  0
   -4.8629    2.0643    6.1128 O   0  0  0  0  0  2           0  0  0
    1.2816    2.2961   -2.4208 O   0  0  0  0  0  2           0  0  0
   -0.7871    1.6010    6.3205 O   0  0  0  0  0  2           0  0  0
    1.7888    4.3459   -1.4983 O   0  0  0  0  0  2           0  0  0
   -3.5549    3.5918    7.1600 O   0  0  0  0  0  2           0  0  0
    1.4522   -0.0000   -0.0000 N   0  0  0  0  0  3           0  0  0
    3.5396   -0.7595   -0.0143 N   0  0  0  0  0  3           0  0  0
   -2.1292    0.0062    5.3101 N   0  0  0  0  0  3           0  0  0
    3.5478    0.6103   -0.0330 C   0  0  0  0  0  4           0  0  0
    2.2701   -1.1133    0.0000 C   0  0  0  0  0  4           0  0  0
    2.2624    1.1179   -0.0275 C   0  0  0  0  0  4           0  0  0
   -1.5775    0.0288    4.0147 C   0  0  0  0  0  4           0  0  0
   -4.2579    1.1509    9.1864 C   0  0  0  0  0  4           0  0  0
   -3.7559    0.1729   10.0829 C   0  0  0  0  0  4           0  0  0
   -3.5692    1.3509    7.9642 C   0  0  0  0  0  4           0  0  0
   -2.4333    0.5942    7.6457 C   0  0  0  0  0  4           0  0  0
   -0.5411   -0.0000    1.3972 C   0  0  0  0  0  4           0  0  0
   -0.5138    0.8687    3.6693 C   0  0  0  0  0  4           0  0  0
   -2.1234   -0.8222    3.0487 C   0  0  0  0  0  4           0  0  0
   -5.4141    1.8703    9.5681 C   0  0  0  0  0  4           0  0  0
   -2.6083   -0.5652    9.7456 C   0  0  0  0  0  4           0  0  0
   -4.4089   -0.0535   11.3058 C   0  0  0  0  0  4           0  0  0
   -1.9478   -0.3592    8.5357 C   0  0  0  0  0  4           0  0  0
   -0.0021    0.8535    2.3689 C   0  0  0  0  0  4           0  0  0
   -1.6108   -0.8332    1.7489 C   0  0  0  0  0  4           0  0  0
   -6.0506    1.6303   10.7870 C   0  0  0  0  0  4           0  0  0
   -5.5480    0.6694   11.6549 C   0  0  0  0  0  4           0  0  0
   -4.0611    2.3478    6.9914 C   0  0  0  0  0  4           0  0  0
    1.5773    2.9971   -1.4622 C   0  0  0  0  0  4           0  0  0
   -1.7043    0.7845    6.3687 C   0  0  0  0  0  4           0  0  0
    1.6432    4.9565   -2.7842 C   0  0  0  0  0  4           0  0  0
    0.0000    0.0000   -0.0000 C   0  0  0  0  0  4           0  0  0
    1.7876   -2.5193    0.0145 C   0  0  0  0  0  4           0  0  0
    1.7697    2.5177   -0.0456 C   0  0  0  0  0  4           0  0  0
    1.5858   -3.0778   -1.3913 C   0  0  0  0  0  4           0  0  0
    1.0893   -4.5237   -1.4256 C   0  0  0  0  0  4           0  0  0
    0.8976   -5.0526   -2.8390 C   0  0  0  0  0  4           0  0  0
  1 10  1  0     0  0
  2 29  2  0     0  0
  3 30  2  0     0  0
  4 31  2  0     0  0
  5 30  1  0     0  0
  5 32  1  0     0  0
  6 29  1  0     0  0
  7 11  1  0     0  0
  7 12  1  0     0  0
  7 33  1  0     0  0
  8 10  1  0     0  0
  8 11  2  0     0  0
  9 13  1  0     0  0
  9 31  1  0     0  0
 10 12  2  0     0  0
 11 34  1  0     0  0
 12 35  1  0     0  0
 13 19  2  0     0  0
 13 20  1  0     0  0
 14 15  1  0     0  0
 14 16  2  0     0  0
 14 21  1  0     0  0
 15 22  2  0     0  0
 15 23  1  0     0  0
 16 17  1  0     0  0
 16 29  1  0     0  0
 17 24  2  0     0  0
 17 31  1  0     0  0
 18 25  2  0     0  0
 18 26  1  0     0  0
 18 33  1  0     0  0
 19 25  1  0     0  0
 20 26  2  0     0  0
 21 27  2  0     0  0
 22 24  1  0     0  0
 23 28  2  0     0  0
 27 28  1  0     0  0
 30 35  1  0     0  0
 34 36  1  0     0  0
 36 37  1  0     0  0
 37 38  1  0     0  0
M  END
> <standard_type>
pIC50

> <# Confs.>
25

> <canonical_smiles>
CCCCC1=NC(Cl)=C(CC(OC)=O)N1CC2=CC=C(NC(C3=CC=C(C=CC=C4)C4=C3C(O)=O)=O)C=C2

> <standard_relation>
=

> <Publication_ID>
nan

> <predicted_activity_value>
5.522878745280337

> <actual_activity_value>
5.236572006437063

> <Compound>
19

> <standard_units>
nM

> hash
9828163350660041123

$$$$
19_
XXILIB    08252103513D 0   0.00000     0.00000

 38 41  0     1  0            999 V2000
    5.0019    1.4987   -0.0650 Cl  0  0  0  0  0  1           0  0  0
    0.2785    0.1430    8.6023 O   0  0  0  0  0  2           0  0  0
    1.2816    2.2961   -2.4208 O   0  0  0  0  0  2           0  0  0
   -2.1965   -2.2271    5.7747 O   0  0  0  0  0  2           0  0  0
    1.7888    4.3459   -1.4983 O   0  0  0  0  0  2           0  0  0
   -0.1159   -1.9756    7.8972 O   0  0  0  0  0  2           0  0  0
    1.4522   -0.0000   -0.0000 N   0  0  0  0  0  3           0  0  0
    3.5396   -0.7595   -0.0143 N   0  0  0  0  0  3           0  0  0
   -2.0170    0.0436    5.3535 N   0  0  0  0  0  3           0  0  0
    3.5478    0.6103   -0.0330 C   0  0  0  0  0  4           0  0  0
    2.2701   -1.1133    0.0000 C   0  0  0  0  0  4           0  0  0
    2.2624    1.1179   -0.0275 C   0  0  0  0  0  4           0  0  0
   -1.5247   -0.0054    4.0352 C   0  0  0  0  0  4           0  0  0
   -2.4594   -0.3520    9.8829 C   0  0  0  0  0  4           0  0  0
   -3.8628   -0.2204   10.0415 C   0  0  0  0  0  4           0  0  0
   -1.9584   -0.6354    8.5880 C   0  0  0  0  0  4           0  0  0
   -2.8247   -0.7680    7.4941 C   0  0  0  0  0  4           0  0  0
   -0.5411   -0.0000    1.3972 C   0  0  0  0  0  4           0  0  0
   -1.2877   -1.2124    3.3696 C   0  0  0  0  0  4           0  0  0
   -1.2661    1.2030    3.3807 C   0  0  0  0  0  4           0  0  0
   -1.6443   -0.1958   11.0281 C   0  0  0  0  0  4           0  0  0
   -4.7116   -0.3690    8.9310 C   0  0  0  0  0  4           0  0  0
   -4.3987    0.0580   11.3097 C   0  0  0  0  0  4           0  0  0
   -4.2002   -0.6413    7.6635 C   0  0  0  0  0  4           0  0  0
   -0.7980   -1.2070    2.0606 C   0  0  0  0  0  4           0  0  0
   -0.7744    1.2047    2.0728 C   0  0  0  0  0  4           0  0  0
   -2.1949    0.0823   12.2802 C   0  0  0  0  0  4           0  0  0
   -3.5709    0.2088   12.4206 C   0  0  0  0  0  4           0  0  0
   -0.5035   -0.7676    8.3691 C   0  0  0  0  0  4           0  0  0
    1.5773    2.9971   -1.4622 C   0  0  0  0  0  4           0  0  0
   -2.3183   -1.0571    6.1309 C   0  0  0  0  0  4           0  0  0
    1.6432    4.9565   -2.7842 C   0  0  0  0  0  4           0  0  0
    0.0000    0.0000    0.0000 C   0  0  0  0  0  4           0  0  0
    1.7876   -2.5193    0.0145 C   0  0  0  0  0  4           0  0  0
    1.7697    2.5177   -0.0456 C   0  0  0  0  0  4           0  0  0
    2.5337   -3.3990   -0.9846 C   0  0  0  0  0  4           0  0  0
    2.4088   -2.9408   -2.4381 C   0  0  0  0  0  4           0  0  0
    3.1624   -3.8361   -3.4101 C   0  0  0  0  0  4           0  0  0
  1 10  1  0     0  0
  2 29  2  0     0  0
  3 30  2  0     0  0
  4 31  2  0     0  0
  5 30  1  0     0  0
  5 32  1  0     0  0
  6 29  1  0     0  0
  7 11  1  0     0  0
  7 12  1  0     0  0
  7 33  1  0     0  0
  8 10  1  0     0  0
  8 11  2  0     0  0
  9 13  1  0     0  0
  9 31  1  0     0  0
 10 12  2  0     0  0
 11 34  1  0     0  0
 12 35  1  0     0  0
 13 19  2  0     0  0
 13 20  1  0     0  0
 14 15  1  0     0  0
 14 16  2  0     0  0
 14 21  1  0     0  0
 15 22  2  0     0  0
 15 23  1  0     0  0
 16 17  1  0     0  0
 16 29  1  0     0  0
 17 24  2  0     0  0
 17 31  1  0     0  0
 18 25  2  0     0  0
 18 26  1  0     0  0
 18 33  1  0     0  0
 19 25  1  0     0  0
 20 26  2  0     0  0
 21 27  2  0     0  0
 22 24  1  0     0  0
 23 28  2  0     0  0
 27 28  1  0     0  0
 30 35  1  0     0  0
 34 36  1  0     0  0
 36 37  1  0     0  0
 37 38  1  0     0  0
M  END
> <standard_type>
pIC50

> <# Confs.>
25

> <canonical_smiles>
CCCCC1=NC(Cl)=C(CC(OC)=O)N1CC2=CC=C(NC(C3=CC=C(C=CC=C4)C4=C3C(O)=O)=O)C=C2

> <standard_relation>
=

> <Publication_ID>
nan

> <predicted_activity_value>
5.522878745280337

> <actual_activity_value>
5.236572006437063

> <Compound>
19

> <standard_units>
nM

> hash
9828163350660041123

$$$$
19_
XXILIB    08252103513D 0   0.00000     0.00000

 38 41  0     1  0            999 V2000
    5.0019    1.4987   -0.0650 Cl  0  0  0  0  0  1           0  0  0
   -5.9198    0.1309    6.3123 O   0  0  0  0  0  2           0  0  0
    1.2816    2.2961   -2.4208 O   0  0  0  0  0  2           0  0  0
   -2.1965   -2.2271    5.7747 O   0  0  0  0  0  2           0  0  0
    1.7888    4.3459   -1.4983 O   0  0  0  0  0  2           0  0  0
   -5.1077   -1.9657    6.0195 O   0  0  0  0  0  2           0  0  0
    1.4522   -0.0000   -0.0000 N   0  0  0  0  0  3           0  0  0
    3.5396   -0.7595   -0.0143 N   0  0  0  0  0  3           0  0  0
   -2.0170    0.0436    5.3535 N   0  0  0  0  0  3           0  0  0
    3.5478    0.6103   -0.0330 C   0  0  0  0  0  4           0  0  0
    2.2701   -1.1133    0.0000 C   0  0  0  0  0  4           0  0  0
    2.2624    1.1179   -0.0275 C   0  0  0  0  0  4           0  0  0
   -1.5247   -0.0054    4.0352 C   0  0  0  0  0  4           0  0  0
   -4.6606   -0.3446    9.0635 C   0  0  0  0  0  4           0  0  0
   -3.7019   -0.2224   10.1018 C   0  0  0  0  0  4           0  0  0
   -4.1936   -0.6138    7.7530 C   0  0  0  0  0  4           0  0  0
   -2.8247   -0.7680    7.4941 C   0  0  0  0  0  4           0  0  0
   -0.5411   -0.0000    1.3972 C   0  0  0  0  0  4           0  0  0
   -1.2877   -1.2124    3.3696 C   0  0  0  0  0  4           0  0  0
   -1.2661    1.2030    3.3807 C   0  0  0  0  0  4           0  0  0
   -6.0256   -0.1870    9.3984 C   0  0  0  0  0  4           0  0  0
   -2.3338   -0.3701    9.8147 C   0  0  0  0  0  4           0  0  0
   -4.1246    0.0465   11.4140 C   0  0  0  0  0  4           0  0  0
   -1.8935   -0.6412    8.5205 C   0  0  0  0  0  4           0  0  0
   -0.7980   -1.2070    2.0606 C   0  0  0  0  0  4           0  0  0
   -0.7744    1.2047    2.0728 C   0  0  0  0  0  4           0  0  0
   -6.4270    0.0784   10.7087 C   0  0  0  0  0  4           0  0  0
   -5.4771    0.1951   11.7153 C   0  0  0  0  0  4           0  0  0
   -5.1538   -0.7639    6.6406 C   0  0  0  0  0  4           0  0  0
    1.5773    2.9971   -1.4622 C   0  0  0  0  0  4           0  0  0
   -2.3183   -1.0571    6.1309 C   0  0  0  0  0  4           0  0  0
    1.6432    4.9565   -2.7842 C   0  0  0  0  0  4           0  0  0
    0.0000    0.0000    0.0000 C   0  0  0  0  0  4           0  0  0
    1.7876   -2.5193    0.0145 C   0  0  0  0  0  4           0  0  0
    1.7697    2.5177   -0.0456 C   0  0  0  0  0  4           0  0  0
    2.9343   -3.5262    0.0106 C   0  0  0  0  0  4           0  0  0
    2.4848   -4.9876    0.0252 C   0  0  0  0  0  4           0  0  0
    3.6487   -5.9673    0.0209 C   0  0  0  0  0  4           0  0  0
  1 10  1  0     0  0
  2 29  2  0     0  0
  3 30  2  0     0  0
  4 31  2  0     0  0
  5 30  1  0     0  0
  5 32  1  0     0  0
  6 29  1  0     0  0
  7 11  1  0     0  0
  7 12  1  0     0  0
  7 33  1  0     0  0
  8 10  1  0     0  0
  8 11  2  0     0  0
  9 13  1  0     0  0
  9 31  1  0     0  0
 10 12  2  0     0  0
 11 34  1  0     0  0
 12 35  1  0     0  0
 13 19  2  0     0  0
 13 20  1  0     0  0
 14 15  1  0     0  0
 14 16  2  0     0  0
 14 21  1  0     0  0
 15 22  2  0     0  0
 15 23  1  0     0  0
 16 17  1  0     0  0
 16 29  1  0     0  0
 17 24  2  0     0  0
 17 31  1  0     0  0
 18 25  2  0     0  0
 18 26  1  0     0  0
 18 33  1  0     0  0
 19 25  1  0     0  0
 20 26  2  0     0  0
 21 27  2  0     0  0
 22 24  1  0     0  0
 23 28  2  0     0  0
 27 28  1  0     0  0
 30 35  1  0     0  0
 34 36  1  0     0  0
 36 37  1  0     0  0
 37 38  1  0     0  0
M  END
> <standard_type>
pIC50

> <# Confs.>
25

> <canonical_smiles>
CCCCC1=NC(Cl)=C(CC(OC)=O)N1CC2=CC=C(NC(C3=CC=C(C=CC=C4)C4=C3C(O)=O)=O)C=C2

> <standard_relation>
=

> <Publication_ID>
nan

> <predicted_activity_value>
5.522878745280337

> <actual_activity_value>
5.236572006437063

> <Compound>
19

> <standard_units>
nM

> hash
9828163350660041123

$$$$
19_
XXILIB    08252103513D 0   0.00000     0.00000

 38 41  0     1  0            999 V2000
    5.0019   -1.4987    0.0650 Cl  0  0  0  0  0  1           0  0  0
   -5.9198    0.1309    6.3123 O   0  0  0  0  0  2           0  0  0
    1.3331   -2.3760   -2.3456 O   0  0  0  0  0  2           0  0  0
   -2.1965   -2.2271    5.7747 O   0  0  0  0  0  2           0  0  0
    1.8185   -4.3938   -1.3440 O   0  0  0  0  0  2           0  0  0
   -5.1077   -1.9657    6.0195 O   0  0  0  0  0  2           0  0  0
    1.4522   -0.0000    0.0000 N   0  0  0  0  0  3           0  0  0
    3.5396    0.7595    0.0143 N   0  0  0  0  0  3           0  0  0
   -2.0170    0.0436    5.3535 N   0  0  0  0  0  3           0  0  0
    3.5478   -0.6103    0.0330 C   0  0  0  0  0  4           0  0  0
    2.2701    1.1133    0.0000 C   0  0  0  0  0  4           0  0  0
    2.2624   -1.1179    0.0275 C   0  0  0  0  0  4           0  0  0
   -1.5247   -0.0054    4.0352 C   0  0  0  0  0  4           0  0  0
   -4.6606   -0.3446    9.0635 C   0  0  0  0  0  4           0  0  0
   -3.7019   -0.2224   10.1018 C   0  0  0  0  0  4           0  0  0
   -4.1936   -0.6138    7.7530 C   0  0  0  0  0  4           0  0  0
   -2.8247   -0.7680    7.4941 C   0  0  0  0  0  4           0  0  0
   -0.5411   -0.0000    1.3972 C   0  0  0  0  0  4           0  0  0
   -1.2877   -1.2124    3.3696 C   0  0  0  0  0  4           0  0  0
   -1.2661    1.2030    3.3807 C   0  0  0  0  0  4           0  0  0
   -6.0256   -0.1870    9.3984 C   0  0  0  0  0  4           0  0  0
   -2.3338   -0.3701    9.8147 C   0  0  0  0  0  4           0  0  0
   -4.1246    0.0465   11.4140 C   0  0  0  0  0  4           0  0  0
   -1.8935   -0.6412    8.5205 C   0  0  0  0  0  4           0  0  0
   -0.7980   -1.2070    2.0606 C   0  0  0  0  0  4           0  0  0
   -0.7744    1.2047    2.0728 C   0  0  0  0  0  4           0  0  0
   -6.4270    0.0784   10.7087 C   0  0  0  0  0  4           0  0  0
   -5.4771    0.1951   11.7153 C   0  0  0  0  0  4           0  0  0
   -5.1538   -0.7639    6.6406 C   0  0  0  0  0  4           0  0  0
    1.6078   -3.0444   -1.3579 C   0  0  0  0  0  4           0  0  0
   -2.3183   -1.0571    6.1309 C   0  0  0  0  0  4           0  0  0
    1.6992   -5.0473   -2.6114 C   0  0  0  0  0  4           0  0  0
    0.0000    0.0000    0.0000 C   0  0  0  0  0  4           0  0  0
    1.7876    2.5193   -0.0145 C   0  0  0  0  0  4           0  0  0
    1.7697   -2.5177    0.0456 C   0  0  0  0  0  4           0  0  0
    2.5528    3.3849   -1.0114 C   0  0  0  0  0  4           0  0  0
    2.4557    2.9063   -2.4604 C   0  0  0  0  0  4           0  0  0
    3.2278    3.7881   -3.4304 C   0  0  0  0  0  4           0  0  0
  1 10  1  0     0  0
  2 29  2  0     0  0
  3 30  2  0     0  0
  4 31  2  0     0  0
  5 30  1  0     0  0
  5 32  1  0     0  0
  6 29  1  0     0  0
  7 11  1  0     0  0
  7 12  1  0     0  0
  7 33  1  0     0  0
  8 10  1  0     0  0
  8 11  2  0     0  0
  9 13  1  0     0  0
  9 31  1  0     0  0
 10 12  2  0     0  0
 11 34  1  0     0  0
 12 35  1  0     0  0
 13 19  2  0     0  0
 13 20  1  0     0  0
 14 15  1  0     0  0
 14 16  2  0     0  0
 14 21  1  0     0  0
 15 22  2  0     0  0
 15 23  1  0     0  0
 16 17  1  0     0  0
 16 29  1  0     0  0
 17 24  2  0     0  0
 17 31  1  0     0  0
 18 25  2  0     0  0
 18 26  1  0     0  0
 18 33  1  0     0  0
 19 25  1  0     0  0
 20 26  2  0     0  0
 21 27  2  0     0  0
 22 24  1  0     0  0
 23 28  2  0     0  0
 27 28  1  0     0  0
 30 35  1  0     0  0
 34 36  1  0     0  0
 36 37  1  0     0  0
 37 38  1  0     0  0
M  END
> <standard_type>
pIC50

> <# Confs.>
25

> <canonical_smiles>
CCCCC1=NC(Cl)=C(CC(OC)=O)N1CC2=CC=C(NC(C3=CC=C(C=CC=C4)C4=C3C(O)=O)=O)C=C2

> <standard_relation>
=

> <Publication_ID>
nan

> <predicted_activity_value>
5.522878745280337

> <actual_activity_value>
5.236572006437063

> <Compound>
19

> <standard_units>
nM

> hash
9828163350660041123

$$$$
19_
XXILIB    08252103513D 0   0.00000     0.00000

 38 41  0     1  0            999 V2000
    5.0019    1.4987   -0.0650 Cl  0  0  0  0  0  1           0  0  0
   -0.6308    1.9882    7.8541 O   0  0  0  0  0  2           0  0  0
    1.2816    2.2961   -2.4208 O   0  0  0  0  0  2           0  0  0
   -3.7241    1.5485    5.1831 O   0  0  0  0  0  2           0  0  0
    1.7888    4.3459   -1.4983 O   0  0  0  0  0  2           0  0  0
   -2.3362    3.4740    7.6967 O   0  0  0  0  0  2           0  0  0
    1.4522   -0.0000   -0.0000 N   0  0  0  0  0  3           0  0  0
    3.5396   -0.7595   -0.0143 N   0  0  0  0  0  3           0  0  0
   -2.0717   -0.0680    5.3323 N   0  0  0  0  0  3           0  0  0
    3.5478    0.6103   -0.0330 C   0  0  0  0  0  4           0  0  0
    2.2701   -1.1133    0.0000 C   0  0  0  0  0  4           0  0  0
    2.2624    1.1179   -0.0275 C   0  0  0  0  0  4           0  0  0
   -1.5846   -0.0213    4.0120 C   0  0  0  0  0  4           0  0  0
   -3.1797    1.0024    9.6370 C   0  0  0  0  0  4           0  0  0
   -4.1605    0.0187    9.9241 C   0  0  0  0  0  4           0  0  0
   -2.8301    1.2194    8.2810 C   0  0  0  0  0  4           0  0  0
   -3.4461    0.4920    7.2535 C   0  0  0  0  0  4           0  0  0
   -0.5411    0.0000    1.3972 C   0  0  0  0  0  4           0  0  0
   -2.1127    0.8460    3.0501 C   0  0  0  0  0  4           0  0  0
   -0.5368   -0.8791    3.6631 C   0  0  0  0  0  4           0  0  0
   -2.6069    1.7055   10.7223 C   0  0  0  0  0  4           0  0  0
   -4.7557   -0.7056    8.8768 C   0  0  0  0  0  4           0  0  0
   -4.5327   -0.2277   11.2559 C   0  0  0  0  0  4           0  0  0
   -4.4037   -0.4738    7.5484 C   0  0  0  0  0  4           0  0  0
   -1.5939    0.8535    1.7524 C   0  0  0  0  0  4           0  0  0
   -0.0220   -0.8705    2.3641 C   0  0  0  0  0  4           0  0  0
   -2.9908    1.4480   12.0394 C   0  0  0  0  0  4           0  0  0
   -3.9527    0.4820   12.3056 C   0  0  0  0  0  4           0  0  0
   -1.8243    2.2429    7.9299 C   0  0  0  0  0  4           0  0  0
    1.5773    2.9971   -1.4622 C   0  0  0  0  0  4           0  0  0
   -3.0985    0.7106    5.8288 C   0  0  0  0  0  4           0  0  0
    1.6432    4.9565   -2.7842 C   0  0  0  0  0  4           0  0  0
    0.0000    0.0000   -0.0000 C   0  0  0  0  0  4           0  0  0
    1.7876   -2.5193    0.0145 C   0  0  0  0  0  4           0  0  0
    1.7697    2.5177   -0.0456 C   0  0  0  0  0  4           0  0  0
    2.5337   -3.3990   -0.9846 C   0  0  0  0  0  4           0  0  0
    2.4088   -2.9408   -2.4381 C   0  0  0  0  0  4           0  0  0
    3.1624   -3.8361   -3.4101 C   0  0  0  0  0  4           0  0  0
  1 10  1  0     0  0
  2 29  2  0     0  0
  3 30  2  0     0  0
  4 31  2  0     0  0
  5 30  1  0     0  0
  5 32  1  0     0  0
  6 29  1  0     0  0
  7 11  1  0     0  0
  7 12  1  0     0  0
  7 33  1  0     0  0
  8 10  1  0     0  0
  8 11  2  0     0  0
  9 13  1  0     0  0
  9 31  1  0     0  0
 10 12  2  0     0  0
 11 34  1  0     0  0
 12 35  1  0     0  0
 13 19  2  0     0  0
 13 20  1  0     0  0
 14 15  1  0     0  0
 14 16  2  0     0  0
 14 21  1  0     0  0
 15 22  2  0     0  0
 15 23  1  0     0  0
 16 17  1  0     0  0
 16 29  1  0     0  0
 17 24  2  0     0  0
 17 31  1  0     0  0
 18 25  2  0     0  0
 18 26  1  0     0  0
 18 33  1  0     0  0
 19 25  1  0     0  0
 20 26  2  0     0  0
 21 27  2  0     0  0
 22 24  1  0     0  0
 23 28  2  0     0  0
 27 28  1  0     0  0
 30 35  1  0     0  0
 34 36  1  0     0  0
 36 37  1  0     0  0
 37 38  1  0     0  0
M  END
> <standard_type>
pIC50

> <# Confs.>
25

> <canonical_smiles>
CCCCC1=NC(Cl)=C(CC(OC)=O)N1CC2=CC=C(NC(C3=CC=C(C=CC=C4)C4=C3C(O)=O)=O)C=C2

> <standard_relation>
=

> <Publication_ID>
nan

> <predicted_activity_value>
5.522878745280337

> <actual_activity_value>
5.236572006437063

> <Compound>
19

> <standard_units>
nM

> hash
9828163350660041123

$$$$
19_
XXILIB    08252103513D 0   0.00000     0.00000

 38 41  0     1  0            999 V2000
    5.0019    1.4987   -0.0650 Cl  0  0  0  0  0  1           0  0  0
    0.2785    0.1430    8.6023 O   0  0  0  0  0  2           0  0  0
    1.2816    2.2961   -2.4208 O   0  0  0  0  0  2           0  0  0
   -2.1965   -2.2271    5.7747 O   0  0  0  0  0  2           0  0  0
    1.7888    4.3459   -1.4983 O   0  0  0  0  0  2           0  0  0
   -0.1159   -1.9756    7.8972 O   0  0  0  0  0  2           0  0  0
    1.4522   -0.0000   -0.0000 N   0  0  0  0  0  3           0  0  0
    3.5396   -0.7595   -0.0143 N   0  0  0  0  0  3           0  0  0
   -2.0170    0.0436    5.3535 N   0  0  0  0  0  3           0  0  0
    3.5478    0.6103   -0.0330 C   0  0  0  0  0  4           0  0  0
    2.2701   -1.1133    0.0000 C   0  0  0  0  0  4           0  0  0
    2.2624    1.1179   -0.0275 C   0  0  0  0  0  4           0  0  0
   -1.5247   -0.0054    4.0352 C   0  0  0  0  0  4           0  0  0
   -2.4594   -0.3520    9.8829 C   0  0  0  0  0  4           0  0  0
   -3.8628   -0.2204   10.0415 C   0  0  0  0  0  4           0  0  0
   -1.9584   -0.6354    8.5880 C   0  0  0  0  0  4           0  0  0
   -2.8247   -0.7680    7.4941 C   0  0  0  0  0  4           0  0  0
   -0.5411   -0.0000    1.3972 C   0  0  0  0  0  4           0  0  0
   -1.2877   -1.2124    3.3696 C   0  0  0  0  0  4           0  0  0
   -1.2661    1.2030    3.3807 C   0  0  0  0  0  4           0  0  0
   -1.6443   -0.1958   11.0281 C   0  0  0  0  0  4           0  0  0
   -4.7116   -0.3690    8.9310 C   0  0  0  0  0  4           0  0  0
   -4.3987    0.0580   11.3097 C   0  0  0  0  0  4           0  0  0
   -4.2002   -0.6413    7.6635 C   0  0  0  0  0  4           0  0  0
   -0.7980   -1.2070    2.0606 C   0  0  0  0  0  4           0  0  0
   -0.7744    1.2047    2.0728 C   0  0  0  0  0  4           0  0  0
   -2.1949    0.0823   12.2802 C   0  0  0  0  0  4           0  0  0
   -3.5709    0.2088   12.4206 C   0  0  0  0  0  4           0  0  0
   -0.5035   -0.7676    8.3691 C   0  0  0  0  0  4           0  0  0
    1.5773    2.9971   -1.4622 C   0  0  0  0  0  4           0  0  0
   -2.3183   -1.0571    6.1309 C   0  0  0  0  0  4           0  0  0
    1.6432    4.9565   -2.7842 C   0  0  0  0  0  4           0  0  0
    0.0000    0.0000    0.0000 C   0  0  0  0  0  4           0  0  0
    1.7876   -2.5193    0.0145 C   0  0  0  0  0  4           0  0  0
    1.7697    2.5177   -0.0456 C   0  0  0  0  0  4           0  0  0
    2.5337   -3.3990   -0.9846 C   0  0  0  0  0  4           0  0  0
    2.0703   -4.8560   -1.0047 C   0  0  0  0  0  4           0  0  0
    2.8315   -5.7077   -2.0094 C   0  0  0  0  0  4           0  0  0
  1 10  1  0     0  0
  2 29  2  0     0  0
  3 30  2  0     0  0
  4 31  2  0     0  0
  5 30  1  0     0  0
  5 32  1  0     0  0
  6 29  1  0     0  0
  7 11  1  0     0  0
  7 12  1  0     0  0
  7 33  1  0     0  0
  8 10  1  0     0  0
  8 11  2  0     0  0
  9 13  1  0     0  0
  9 31  1  0     0  0
 10 12  2  0     0  0
 11 34  1  0     0  0
 12 35  1  0     0  0
 13 19  2  0     0  0
 13 20  1  0     0  0
 14 15  1  0     0  0
 14 16  2  0     0  0
 14 21  1  0     0  0
 15 22  2  0     0  0
 15 23  1  0     0  0
 16 17  1  0     0  0
 16 29  1  0     0  0
 17 24  2  0     0  0
 17 31  1  0     0  0
 18 25  2  0     0  0
 18 26  1  0     0  0
 18 33  1  0     0  0
 19 25  1  0     0  0
 20 26  2  0     0  0
 21 27  2  0     0  0
 22 24  1  0     0  0
 23 28  2  0     0  0
 27 28  1  0     0  0
 30 35  1  0     0  0
 34 36  1  0     0  0
 36 37  1  0     0  0
 37 38  1  0     0  0
M  END
> <standard_type>
pIC50

> <# Confs.>
25

> <canonical_smiles>
CCCCC1=NC(Cl)=C(CC(OC)=O)N1CC2=CC=C(NC(C3=CC=C(C=CC=C4)C4=C3C(O)=O)=O)C=C2

> <standard_relation>
=

> <Publication_ID>
nan

> <predicted_activity_value>
5.522878745280337

> <actual_activity_value>
5.236572006437063

> <Compound>
19

> <standard_units>
nM

> hash
9828163350660041123

$$$$
19_
XXILIB    08252103513D 0   0.00000     0.00000

 38 41  0     1  0            999 V2000
    5.0019    1.4987   -0.0650 Cl  0  0  0  0  0  1           0  0  0
   -4.8629    2.0643    6.1128 O   0  0  0  0  0  2           0  0  0
    1.2816    2.2961   -2.4208 O   0  0  0  0  0  2           0  0  0
   -0.7871    1.6010    6.3205 O   0  0  0  0  0  2           0  0  0
    1.7888    4.3459   -1.4983 O   0  0  0  0  0  2           0  0  0
   -3.5549    3.5918    7.1600 O   0  0  0  0  0  2           0  0  0
    1.4522   -0.0000   -0.0000 N   0  0  0  0  0  3           0  0  0
    3.5396   -0.7595   -0.0143 N   0  0  0  0  0  3           0  0  0
   -2.1292    0.0062    5.3101 N   0  0  0  0  0  3           0  0  0
    3.5478    0.6103   -0.0330 C   0  0  0  0  0  4           0  0  0
    2.2701   -1.1133    0.0000 C   0  0  0  0  0  4           0  0  0
    2.2624    1.1179   -0.0275 C   0  0  0  0  0  4           0  0  0
   -1.5775    0.0288    4.0147 C   0  0  0  0  0  4           0  0  0
   -4.2579    1.1509    9.1864 C   0  0  0  0  0  4           0  0  0
   -3.7559    0.1729   10.0829 C   0  0  0  0  0  4           0  0  0
   -3.5692    1.3509    7.9642 C   0  0  0  0  0  4           0  0  0
   -2.4333    0.5942    7.6457 C   0  0  0  0  0  4           0  0  0
   -0.5411   -0.0000    1.3972 C   0  0  0  0  0  4           0  0  0
   -0.5138    0.8687    3.6693 C   0  0  0  0  0  4           0  0  0
   -2.1234   -0.8222    3.0487 C   0  0  0  0  0  4           0  0  0
   -5.4141    1.8703    9.5681 C   0  0  0  0  0  4           0  0  0
   -2.6083   -0.5652    9.7456 C   0  0  0  0  0  4           0  0  0
   -4.4089   -0.0535   11.3058 C   0  0  0  0  0  4           0  0  0
   -1.9478   -0.3592    8.5357 C   0  0  0  0  0  4           0  0  0
   -0.0021    0.8535    2.3689 C   0  0  0  0  0  4           0  0  0
   -1.6108   -0.8332    1.7489 C   0  0  0  0  0  4           0  0  0
   -6.0506    1.6303   10.7870 C   0  0  0  0  0  4           0  0  0
   -5.5480    0.6694   11.6549 C   0  0  0  0  0  4           0  0  0
   -4.0611    2.3478    6.9914 C   0  0  0  0  0  4           0  0  0
    1.5773    2.9971   -1.4622 C   0  0  0  0  0  4           0  0  0
   -1.7043    0.7845    6.3687 C   0  0  0  0  0  4           0  0  0
    1.6432    4.9565   -2.7842 C   0  0  0  0  0  4           0  0  0
    0.0000    0.0000   -0.0000 C   0  0  0  0  0  4           0  0  0
    1.7876   -2.5193    0.0145 C   0  0  0  0  0  4           0  0  0
    1.7697    2.5177   -0.0456 C   0  0  0  0  0  4           0  0  0
    1.6128   -3.0580    1.4316 C   0  0  0  0  0  4           0  0  0
    1.1172   -4.5031    1.4957 C   0  0  0  0  0  4           0  0  0
    0.9527   -5.0122    2.9198 C   0  0  0  0  0  4           0  0  0
  1 10  1  0     0  0
  2 29  2  0     0  0
  3 30  2  0     0  0
  4 31  2  0     0  0
  5 30  1  0     0  0
  5 32  1  0     0  0
  6 29  1  0     0  0
  7 11  1  0     0  0
  7 12  1  0     0  0
  7 33  1  0     0  0
  8 10  1  0     0  0
  8 11  2  0     0  0
  9 13  1  0     0  0
  9 31  1  0     0  0
 10 12  2  0     0  0
 11 34  1  0     0  0
 12 35  1  0     0  0
 13 19  2  0     0  0
 13 20  1  0     0  0
 14 15  1  0     0  0
 14 16  2  0     0  0
 14 21  1  0     0  0
 15 22  2  0     0  0
 15 23  1  0     0  0
 16 17  1  0     0  0
 16 29  1  0     0  0
 17 24  2  0     0  0
 17 31  1  0     0  0
 18 25  2  0     0  0
 18 26  1  0     0  0
 18 33  1  0     0  0
 19 25  1  0     0  0
 20 26  2  0     0  0
 21 27  2  0     0  0
 22 24  1  0     0  0
 23 28  2  0     0  0
 27 28  1  0     0  0
 30 35  1  0     0  0
 34 36  1  0     0  0
 36 37  1  0     0  0
 37 38  1  0     0  0
M  END
> <standard_type>
pIC50

> <# Confs.>
25

> <canonical_smiles>
CCCCC1=NC(Cl)=C(CC(OC)=O)N1CC2=CC=C(NC(C3=CC=C(C=CC=C4)C4=C3C(O)=O)=O)C=C2

> <standard_relation>
=

> <Publication_ID>
nan

> <predicted_activity_value>
5.522878745280337

> <actual_activity_value>
5.236572006437063

> <Compound>
19

> <standard_units>
nM

> hash
9828163350660041123

$$$$
19_
XXILIB    08252103513D 0   0.00000     0.00000

 38 41  0     1  0            999 V2000
    5.0019    1.4987   -0.0650 Cl  0  0  0  0  0  1           0  0  0
   -5.8824   -1.2579    6.0632 O   0  0  0  0  0  2           0  0  0
    1.2816    2.2961   -2.4208 O   0  0  0  0  0  2           0  0  0
   -3.7241    1.5485    5.1831 O   0  0  0  0  0  2           0  0  0
    1.7888    4.3459   -1.4983 O   0  0  0  0  0  2           0  0  0
   -6.5139    0.9061    6.3065 O   0  0  0  0  0  2           0  0  0
    1.4522   -0.0000   -0.0000 N   0  0  0  0  0  3           0  0  0
    3.5396   -0.7595   -0.0143 N   0  0  0  0  0  3           0  0  0
   -2.0717   -0.0680    5.3323 N   0  0  0  0  0  3           0  0  0
    3.5478    0.6103   -0.0330 C   0  0  0  0  0  4           0  0  0
    2.2701   -1.1133    0.0000 C   0  0  0  0  0  4           0  0  0
    2.2624    1.1179   -0.0275 C   0  0  0  0  0  4           0  0  0
   -1.5846   -0.0213    4.0120 C   0  0  0  0  0  4           0  0  0
   -5.0397   -0.1347    9.0086 C   0  0  0  0  0  4           0  0  0
   -4.0236    0.1007    9.9701 C   0  0  0  0  0  4           0  0  0
   -4.7268    0.0762    7.6427 C   0  0  0  0  0  4           0  0  0
   -3.4461    0.4920    7.2535 C   0  0  0  0  0  4           0  0  0
   -0.5411    0.0000    1.3972 C   0  0  0  0  0  4           0  0  0
   -2.1127    0.8460    3.0501 C   0  0  0  0  0  4           0  0  0
   -0.5368   -0.8791    3.6631 C   0  0  0  0  0  4           0  0  0
   -6.3057   -0.5626    9.4717 C   0  0  0  0  0  4           0  0  0
   -2.7505    0.5282    9.5554 C   0  0  0  0  0  4           0  0  0
   -4.2950   -0.0946   11.3343 C   0  0  0  0  0  4           0  0  0
   -2.4591    0.7241    8.2067 C   0  0  0  0  0  4           0  0  0
   -1.5939    0.8535    1.7524 C   0  0  0  0  0  4           0  0  0
   -0.0220   -0.8705    2.3641 C   0  0  0  0  0  4           0  0  0
   -6.5563   -0.7529   10.8317 C   0  0  0  0  0  4           0  0  0
   -5.5518   -0.5188   11.7619 C   0  0  0  0  0  4           0  0  0
   -5.7468   -0.1690    6.6027 C   0  0  0  0  0  4           0  0  0
    1.5773    2.9971   -1.4622 C   0  0  0  0  0  4           0  0  0
   -3.0985    0.7106    5.8288 C   0  0  0  0  0  4           0  0  0
    1.6432    4.9565   -2.7842 C   0  0  0  0  0  4           0  0  0
    0.0000    0.0000   -0.0000 C   0  0  0  0  0  4           0  0  0
    1.7876   -2.5193    0.0145 C   0  0  0  0  0  4           0  0  0
    1.7697    2.5177   -0.0456 C   0  0  0  0  0  4           0  0  0
    2.5337   -3.3990   -0.9846 C   0  0  0  0  0  4           0  0  0
    2.0703   -4.8560   -1.0047 C   0  0  0  0  0  4           0  0  0
    2.8315   -5.7077   -2.0094 C   0  0  0  0  0  4           0  0  0
  1 10  1  0     0  0
  2 29  2  0     0  0
  3 30  2  0     0  0
  4 31  2  0     0  0
  5 30  1  0     0  0
  5 32  1  0     0  0
  6 29  1  0     0  0
  7 11  1  0     0  0
  7 12  1  0     0  0
  7 33  1  0     0  0
  8 10  1  0     0  0
  8 11  2  0     0  0
  9 13  1  0     0  0
  9 31  1  0     0  0
 10 12  2  0     0  0
 11 34  1  0     0  0
 12 35  1  0     0  0
 13 19  2  0     0  0
 13 20  1  0     0  0
 14 15  1  0     0  0
 14 16  2  0     0  0
 14 21  1  0     0  0
 15 22  2  0     0  0
 15 23  1  0     0  0
 16 17  1  0     0  0
 16 29  1  0     0  0
 17 24  2  0     0  0
 17 31  1  0     0  0
 18 25  2  0     0  0
 18 26  1  0     0  0
 18 33  1  0     0  0
 19 25  1  0     0  0
 20 26  2  0     0  0
 21 27  2  0     0  0
 22 24  1  0     0  0
 23 28  2  0     0  0
 27 28  1  0     0  0
 30 35  1  0     0  0
 34 36  1  0     0  0
 36 37  1  0     0  0
 37 38  1  0     0  0
M  END
> <standard_type>
pIC50

> <# Confs.>
25

> <canonical_smiles>
CCCCC1=NC(Cl)=C(CC(OC)=O)N1CC2=CC=C(NC(C3=CC=C(C=CC=C4)C4=C3C(O)=O)=O)C=C2

> <standard_relation>
=

> <Publication_ID>
nan

> <predicted_activity_value>
5.522878745280337

> <actual_activity_value>
5.236572006437063

> <Compound>
19

> <standard_units>
nM

> hash
9828163350660041123

$$$$
19_
XXILIB    08252103513D 0   0.00000     0.00000

 38 41  0     1  0            999 V2000
    5.0019    1.4987   -0.0650 Cl  0  0  0  0  0  1           0  0  0
   -4.6177   -2.3272    6.2078 O   0  0  0  0  0  2           0  0  0
    1.2816    2.2961   -2.4208 O   0  0  0  0  0  2           0  0  0
   -3.7241    1.5485    5.1831 O   0  0  0  0  0  2           0  0  0
    1.7888    4.3459   -1.4983 O   0  0  0  0  0  2           0  0  0
   -6.2242   -0.7293    6.1263 O   0  0  0  0  0  2           0  0  0
    1.4522   -0.0000   -0.0000 N   0  0  0  0  0  3           0  0  0
    3.5396   -0.7595   -0.0143 N   0  0  0  0  0  3           0  0  0
   -2.0717   -0.0680    5.3323 N   0  0  0  0  0  3           0  0  0
    3.5478    0.6103   -0.0330 C   0  0  0  0  0  4           0  0  0
    2.2701   -1.1133    0.0000 C   0  0  0  0  0  4           0  0  0
    2.2624    1.1179   -0.0275 C   0  0  0  0  0  4           0  0  0
   -1.5846   -0.0213    4.0120 C   0  0  0  0  0  4           0  0  0
   -4.7221   -0.6531    9.0066 C   0  0  0  0  0  4           0  0  0
   -4.0465    0.1388    9.9704 C   0  0  0  0  0  4           0  0  0
   -4.4072   -0.4523    7.6396 C   0  0  0  0  0  4           0  0  0
   -3.4461    0.4920    7.2535 C   0  0  0  0  0  4           0  0  0
   -0.5411    0.0000    1.3972 C   0  0  0  0  0  4           0  0  0
   -2.1127    0.8460    3.0501 C   0  0  0  0  0  4           0  0  0
   -0.5368   -0.8791    3.6631 C   0  0  0  0  0  4           0  0  0
   -5.6723   -1.5934    9.4681 C   0  0  0  0  0  4           0  0  0
   -3.0950    1.0871    9.5571 C   0  0  0  0  0  4           0  0  0
   -4.3324   -0.0285   11.3354 C   0  0  0  0  0  4           0  0  0
   -2.7935    1.2661    8.2082 C   0  0  0  0  0  4           0  0  0
   -1.5939    0.8535    1.7524 C   0  0  0  0  0  4           0  0  0
   -0.0220   -0.8705    2.3641 C   0  0  0  0  0  4           0  0  0
   -5.9420   -1.7468   10.8291 C   0  0  0  0  0  4           0  0  0
   -5.2726   -0.9647   11.7616 C   0  0  0  0  0  4           0  0  0
   -5.0734   -1.2623    6.5993 C   0  0  0  0  0  4           0  0  0
    1.5773    2.9971   -1.4622 C   0  0  0  0  0  4           0  0  0
   -3.0985    0.7106    5.8288 C   0  0  0  0  0  4           0  0  0
    1.6432    4.9565   -2.7842 C   0  0  0  0  0  4           0  0  0
    0.0000    0.0000   -0.0000 C   0  0  0  0  0  4           0  0  0
    1.7876   -2.5193    0.0145 C   0  0  0  0  0  4           0  0  0
    1.7697    2.5177   -0.0456 C   0  0  0  0  0  4           0  0  0
    2.5528   -3.3849    1.0114 C   0  0  0  0  0  4           0  0  0
    2.0900   -4.8415    1.0609 C   0  0  0  0  0  4           0  0  0
    2.8704   -5.6791    2.0627 C   0  0  0  0  0  4           0  0  0
  1 10  1  0     0  0
  2 29  2  0     0  0
  3 30  2  0     0  0
  4 31  2  0     0  0
  5 30  1  0     0  0
  5 32  1  0     0  0
  6 29  1  0     0  0
  7 11  1  0     0  0
  7 12  1  0     0  0
  7 33  1  0     0  0
  8 10  1  0     0  0
  8 11  2  0     0  0
  9 13  1  0     0  0
  9 31  1  0     0  0
 10 12  2  0     0  0
 11 34  1  0     0  0
 12 35  1  0     0  0
 13 19  2  0     0  0
 13 20  1  0     0  0
 14 15  1  0     0  0
 14 16  2  0     0  0
 14 21  1  0     0  0
 15 22  2  0     0  0
 15 23  1  0     0  0
 16 17  1  0     0  0
 16 29  1  0     0  0
 17 24  2  0     0  0
 17 31  1  0     0  0
 18 25  2  0     0  0
 18 26  1  0     0  0
 18 33  1  0     0  0
 19 25  1  0     0  0
 20 26  2  0     0  0
 21 27  2  0     0  0
 22 24  1  0     0  0
 23 28  2  0     0  0
 27 28  1  0     0  0
 30 35  1  0     0  0
 34 36  1  0     0  0
 36 37  1  0     0  0
 37 38  1  0     0  0
M  END
> <standard_type>
pIC50

> <# Confs.>
25

> <canonical_smiles>
CCCCC1=NC(Cl)=C(CC(OC)=O)N1CC2=CC=C(NC(C3=CC=C(C=CC=C4)C4=C3C(O)=O)=O)C=C2

> <standard_relation>
=

> <Publication_ID>
nan

> <predicted_activity_value>
5.522878745280337

> <actual_activity_value>
5.236572006437063

> <Compound>
19

> <standard_units>
nM

> hash
9828163350660041123

$$$$
19_
XXILIB    08252103513D 0   0.00000     0.00000

 38 41  0     1  0            999 V2000
    5.0019    1.4987   -0.0650 Cl  0  0  0  0  0  1           0  0  0
   -1.7616    3.2168    7.7667 O   0  0  0  0  0  2           0  0  0
    1.2816    2.2961   -2.4208 O   0  0  0  0  0  2           0  0  0
   -3.7241    1.5485    5.1831 O   0  0  0  0  0  2           0  0  0
    1.7888    4.3459   -1.4983 O   0  0  0  0  0  2           0  0  0
   -3.9417    3.6651    7.3343 O   0  0  0  0  0  2           0  0  0
    1.4522   -0.0000   -0.0000 N   0  0  0  0  0  3           0  0  0
    3.5396   -0.7595   -0.0143 N   0  0  0  0  0  3           0  0  0
   -2.0717   -0.0680    5.3323 N   0  0  0  0  0  3           0  0  0
    3.5478    0.6103   -0.0330 C   0  0  0  0  0  4           0  0  0
    2.2701   -1.1133    0.0000 C   0  0  0  0  0  4           0  0  0
    2.2624    1.1179   -0.0275 C   0  0  0  0  0  4           0  0  0
   -1.5846   -0.0213    4.0120 C   0  0  0  0  0  4           0  0  0
   -3.7039    1.2990    9.5546 C   0  0  0  0  0  4           0  0  0
   -4.1223   -0.0034    9.9301 C   0  0  0  0  0  4           0  0  0
   -3.3609    1.5239    8.1982 C   0  0  0  0  0  4           0  0  0
   -3.4461    0.4920    7.2535 C   0  0  0  0  0  4           0  0  0
   -0.5411    0.0000    1.3972 C   0  0  0  0  0  4           0  0  0
   -2.1127    0.8460    3.0501 C   0  0  0  0  0  4           0  0  0
   -0.5368   -0.8791    3.6631 C   0  0  0  0  0  4           0  0  0
   -3.6510    2.2944   10.5579 C   0  0  0  0  0  4           0  0  0
   -4.1887   -1.0243    8.9663 C   0  0  0  0  0  4           0  0  0
   -4.4685   -0.2672   11.2655 C   0  0  0  0  0  4           0  0  0
   -3.8536   -0.7827    7.6352 C   0  0  0  0  0  4           0  0  0
   -1.5939    0.8535    1.7524 C   0  0  0  0  0  4           0  0  0
   -0.0220   -0.8705    2.3641 C   0  0  0  0  0  4           0  0  0
   -4.0005    2.0138   11.8798 C   0  0  0  0  0  4           0  0  0
   -4.4087    0.7341   12.2330 C   0  0  0  0  0  4           0  0  0
   -2.9330    2.8666    7.7551 C   0  0  0  0  0  4           0  0  0
    1.5773    2.9971   -1.4622 C   0  0  0  0  0  4           0  0  0
   -3.0985    0.7106    5.8288 C   0  0  0  0  0  4           0  0  0
    1.6432    4.9565   -2.7842 C   0  0  0  0  0  4           0  0  0
    0.0000    0.0000   -0.0000 C   0  0  0  0  0  4           0  0  0
    1.7876   -2.5193    0.0145 C   0  0  0  0  0  4           0  0  0
    1.7697    2.5177   -0.0456 C   0  0  0  0  0  4           0  0  0
    2.5337   -3.3990   -0.9846 C   0  0  0  0  0  4           0  0  0
    2.0703   -4.8560   -1.0047 C   0  0  0  0  0  4           0  0  0
    2.8315   -5.7077   -2.0094 C   0  0  0  0  0  4           0  0  0
  1 10  1  0     0  0
  2 29  2  0     0  0
  3 30  2  0     0  0
  4 31  2  0     0  0
  5 30  1  0     0  0
  5 32  1  0     0  0
  6 29  1  0     0  0
  7 11  1  0     0  0
  7 12  1  0     0  0
  7 33  1  0     0  0
  8 10  1  0     0  0
  8 11  2  0     0  0
  9 13  1  0     0  0
  9 31  1  0     0  0
 10 12  2  0     0  0
 11 34  1  0     0  0
 12 35  1  0     0  0
 13 19  2  0     0  0
 13 20  1  0     0  0
 14 15  1  0     0  0
 14 16  2  0     0  0
 14 21  1  0     0  0
 15 22  2  0     0  0
 15 23  1  0     0  0
 16 17  1  0     0  0
 16 29  1  0     0  0
 17 24  2  0     0  0
 17 31  1  0     0  0
 18 25  2  0     0  0
 18 26  1  0     0  0
 18 33  1  0     0  0
 19 25  1  0     0  0
 20 26  2  0     0  0
 21 27  2  0     0  0
 22 24  1  0     0  0
 23 28  2  0     0  0
 27 28  1  0     0  0
 30 35  1  0     0  0
 34 36  1  0     0  0
 36 37  1  0     0  0
 37 38  1  0     0  0
M  END
> <standard_type>
pIC50

> <# Confs.>
25

> <canonical_smiles>
CCCCC1=NC(Cl)=C(CC(OC)=O)N1CC2=CC=C(NC(C3=CC=C(C=CC=C4)C4=C3C(O)=O)=O)C=C2

> <standard_relation>
=

> <Publication_ID>
nan

> <predicted_activity_value>
5.522878745280337

> <actual_activity_value>
5.236572006437063

> <Compound>
19

> <standard_units>
nM

> hash
9828163350660041123

$$$$
19_
XXILIB    08252103513D 0   0.00000     0.00000

 38 41  0     1  0            999 V2000
    5.0019    1.4987   -0.0650 Cl  0  0  0  0  0  1           0  0  0
   -0.8732   -2.2481    7.7603 O   0  0  0  0  0  2           0  0  0
    1.2816    2.2961   -2.4208 O   0  0  0  0  0  2           0  0  0
   -0.7871    1.6010    6.3205 O   0  0  0  0  0  2           0  0  0
    1.7888    4.3459   -1.4983 O   0  0  0  0  0  2           0  0  0
    0.3429   -0.6009    8.7343 O   0  0  0  0  0  2           0  0  0
    1.4522   -0.0000   -0.0000 N   0  0  0  0  0  3           0  0  0
    3.5396   -0.7595   -0.0143 N   0  0  0  0  0  3           0  0  0
   -2.1292    0.0062    5.3101 N   0  0  0  0  0  3           0  0  0
    3.5478    0.6103   -0.0330 C   0  0  0  0  0  4           0  0  0
    2.2701   -1.1133    0.0000 C   0  0  0  0  0  4           0  0  0
    2.2624    1.1179   -0.0275 C   0  0  0  0  0  4           0  0  0
   -1.5775    0.0288    4.0147 C   0  0  0  0  0  4           0  0  0
   -2.7252   -0.5151    9.8130 C   0  0  0  0  0  4           0  0  0
   -3.8672    0.2958   10.0377 C   0  0  0  0  0  4           0  0  0
   -2.0206   -0.3514    8.5945 C   0  0  0  0  0  4           0  0  0
   -2.4333    0.5942    7.6457 C   0  0  0  0  0  4           0  0  0
   -0.5411   -0.0000    1.3972 C   0  0  0  0  0  4           0  0  0
   -0.5138    0.8687    3.6693 C   0  0  0  0  0  4           0  0  0
   -2.1234   -0.8222    3.0487 C   0  0  0  0  0  4           0  0  0
   -2.3604   -1.4411   10.8178 C   0  0  0  0  0  4           0  0  0
   -4.2675    1.2291    9.0658 C   0  0  0  0  0  4           0  0  0
   -4.5940    0.1620   11.2322 C   0  0  0  0  0  4           0  0  0
   -3.5581    1.3806    7.8758 C   0  0  0  0  0  4           0  0  0
   -0.0021    0.8535    2.3689 C   0  0  0  0  0  4           0  0  0
   -1.6108   -0.8332    1.7489 C   0  0  0  0  0  4           0  0  0
   -3.0942   -1.5588   11.9994 C   0  0  0  0  0  4           0  0  0
   -4.2100   -0.7580   12.2060 C   0  0  0  0  0  4           0  0  0
   -0.8169   -1.1625    8.3201 C   0  0  0  0  0  4           0  0  0
    1.5773    2.9971   -1.4622 C   0  0  0  0  0  4           0  0  0
   -1.7043    0.7845    6.3687 C   0  0  0  0  0  4           0  0  0
    1.6432    4.9565   -2.7842 C   0  0  0  0  0  4           0  0  0
    0.0000    0.0000   -0.0000 C   0  0  0  0  0  4           0  0  0
    1.7876   -2.5193    0.0145 C   0  0  0  0  0  4           0  0  0
    1.7697    2.5177   -0.0456 C   0  0  0  0  0  4           0  0  0
    1.5858   -3.0778   -1.3913 C   0  0  0  0  0  4           0  0  0
    1.0893   -4.5237   -1.4256 C   0  0  0  0  0  4           0  0  0
    0.8976   -5.0526   -2.8390 C   0  0  0  0  0  4           0  0  0
  1 10  1  0     0  0
  2 29  2  0     0  0
  3 30  2  0     0  0
  4 31  2  0     0  0
  5 30  1  0     0  0
  5 32  1  0     0  0
  6 29  1  0     0  0
  7 11  1  0     0  0
  7 12  1  0     0  0
  7 33  1  0     0  0
  8 10  1  0     0  0
  8 11  2  0     0  0
  9 13  1  0     0  0
  9 31  1  0     0  0
 10 12  2  0     0  0
 11 34  1  0     0  0
 12 35  1  0     0  0
 13 19  2  0     0  0
 13 20  1  0     0  0
 14 15  1  0     0  0
 14 16  2  0     0  0
 14 21  1  0     0  0
 15 22  2  0     0  0
 15 23  1  0     0  0
 16 17  1  0     0  0
 16 29  1  0     0  0
 17 24  2  0     0  0
 17 31  1  0     0  0
 18 25  2  0     0  0
 18 26  1  0     0  0
 18 33  1  0     0  0
 19 25  1  0     0  0
 20 26  2  0     0  0
 21 27  2  0     0  0
 22 24  1  0     0  0
 23 28  2  0     0  0
 27 28  1  0     0  0
 30 35  1  0     0  0
 34 36  1  0     0  0
 36 37  1  0     0  0
 37 38  1  0     0  0
M  END
> <standard_type>
pIC50

> <# Confs.>
25

> <canonical_smiles>
CCCCC1=NC(Cl)=C(CC(OC)=O)N1CC2=CC=C(NC(C3=CC=C(C=CC=C4)C4=C3C(O)=O)=O)C=C2

> <standard_relation>
=

> <Publication_ID>
nan

> <predicted_activity_value>
5.522878745280337

> <actual_activity_value>
5.236572006437063

> <Compound>
19

> <standard_units>
nM

> hash
9828163350660041123

$$$$
19_
XXILIB    08252103513D 0   0.00000     0.00000

 38 41  0     1  0            999 V2000
    5.0019   -1.4987    0.0650 Cl  0  0  0  0  0  1           0  0  0
   -4.8629    2.0643    6.1128 O   0  0  0  0  0  2           0  0  0
    1.3331   -2.3760   -2.3456 O   0  0  0  0  0  2           0  0  0
   -0.7871    1.6010    6.3205 O   0  0  0  0  0  2           0  0  0
    1.8185   -4.3938   -1.3440 O   0  0  0  0  0  2           0  0  0
   -3.5549    3.5918    7.1600 O   0  0  0  0  0  2           0  0  0
    1.4522   -0.0000    0.0000 N   0  0  0  0  0  3           0  0  0
    3.5396    0.7595    0.0143 N   0  0  0  0  0  3           0  0  0
   -2.1292    0.0062    5.3101 N   0  0  0  0  0  3           0  0  0
    3.5478   -0.6103    0.0330 C   0  0  0  0  0  4           0  0  0
    2.2701    1.1133    0.0000 C   0  0  0  0  0  4           0  0  0
    2.2624   -1.1179    0.0275 C   0  0  0  0  0  4           0  0  0
   -1.5775    0.0288    4.0147 C   0  0  0  0  0  4           0  0  0
   -4.2579    1.1509    9.1864 C   0  0  0  0  0  4           0  0  0
   -3.7559    0.1729   10.0829 C   0  0  0  0  0  4           0  0  0
   -3.5692    1.3509    7.9642 C   0  0  0  0  0  4           0  0  0
   -2.4333    0.5942    7.6457 C   0  0  0  0  0  4           0  0  0
   -0.5411   -0.0000    1.3972 C   0  0  0  0  0  4           0  0  0
   -0.5138    0.8687    3.6693 C   0  0  0  0  0  4           0  0  0
   -2.1234   -0.8222    3.0487 C   0  0  0  0  0  4           0  0  0
   -5.4141    1.8703    9.5681 C   0  0  0  0  0  4           0  0  0
   -2.6083   -0.5652    9.7456 C   0  0  0  0  0  4           0  0  0
   -4.4089   -0.0535   11.3058 C   0  0  0  0  0  4           0  0  0
   -1.9478   -0.3592    8.5357 C   0  0  0  0  0  4           0  0  0
   -0.0021    0.8535    2.3689 C   0  0  0  0  0  4           0  0  0
   -1.6108   -0.8332    1.7489 C   0  0  0  0  0  4           0  0  0
   -6.0506    1.6303   10.7870 C   0  0  0  0  0  4           0  0  0
   -5.5480    0.6694   11.6549 C   0  0  0  0  0  4           0  0  0
   -4.0611    2.3478    6.9914 C   0  0  0  0  0  4           0  0  0
    1.6078   -3.0444   -1.3579 C   0  0  0  0  0  4           0  0  0
   -1.7043    0.7845    6.3687 C   0  0  0  0  0  4           0  0  0
    1.6992   -5.0473   -2.6114 C   0  0  0  0  0  4           0  0  0
    0.0000    0.0000   -0.0000 C   0  0  0  0  0  4           0  0  0
    1.7876    2.5193   -0.0145 C   0  0  0  0  0  4           0  0  0
    1.7697   -2.5177    0.0456 C   0  0  0  0  0  4           0  0  0
    2.5528    3.3849   -1.0114 C   0  0  0  0  0  4           0  0  0
    2.4557    2.9063   -2.4604 C   0  0  0  0  0  4           0  0  0
    3.2278    3.7881   -3.4304 C   0  0  0  0  0  4           0  0  0
  1 10  1  0     0  0
  2 29  2  0     0  0
  3 30  2  0     0  0
  4 31  2  0     0  0
  5 30  1  0     0  0
  5 32  1  0     0  0
  6 29  1  0     0  0
  7 11  1  0     0  0
  7 12  1  0     0  0
  7 33  1  0     0  0
  8 10  1  0     0  0
  8 11  2  0     0  0
  9 13  1  0     0  0
  9 31  1  0     0  0
 10 12  2  0     0  0
 11 34  1  0     0  0
 12 35  1  0     0  0
 13 19  2  0     0  0
 13 20  1  0     0  0
 14 15  1  0     0  0
 14 16  2  0     0  0
 14 21  1  0     0  0
 15 22  2  0     0  0
 15 23  1  0     0  0
 16 17  1  0     0  0
 16 29  1  0     0  0
 17 24  2  0     0  0
 17 31  1  0     0  0
 18 25  2  0     0  0
 18 26  1  0     0  0
 18 33  1  0     0  0
 19 25  1  0     0  0
 20 26  2  0     0  0
 21 27  2  0     0  0
 22 24  1  0     0  0
 23 28  2  0     0  0
 27 28  1  0     0  0
 30 35  1  0     0  0
 34 36  1  0     0  0
 36 37  1  0     0  0
 37 38  1  0     0  0
M  END
> <standard_type>
pIC50

> <# Confs.>
25

> <canonical_smiles>
CCCCC1=NC(Cl)=C(CC(OC)=O)N1CC2=CC=C(NC(C3=CC=C(C=CC=C4)C4=C3C(O)=O)=O)C=C2

> <standard_relation>
=

> <Publication_ID>
nan

> <predicted_activity_value>
5.522878745280337

> <actual_activity_value>
5.236572006437063

> <Compound>
19

> <standard_units>
nM

> hash
9828163350660041123

$$$$
19_
XXILIB    08252103513D 0   0.00000     0.00000

 38 41  0     1  0            999 V2000
    5.0019   -1.4987    0.0650 Cl  0  0  0  0  0  1           0  0  0
   -4.8629    2.0643    6.1128 O   0  0  0  0  0  2           0  0  0
    1.3331   -2.3760   -2.3456 O   0  0  0  0  0  2           0  0  0
   -0.7871    1.6010    6.3205 O   0  0  0  0  0  2           0  0  0
    1.8185   -4.3938   -1.3440 O   0  0  0  0  0  2           0  0  0
   -3.5549    3.5918    7.1600 O   0  0  0  0  0  2           0  0  0
    1.4522   -0.0000    0.0000 N   0  0  0  0  0  3           0  0  0
    3.5396    0.7595    0.0143 N   0  0  0  0  0  3           0  0  0
   -2.1292    0.0062    5.3101 N   0  0  0  0  0  3           0  0  0
    3.5478   -0.6103    0.0330 C   0  0  0  0  0  4           0  0  0
    2.2701    1.1133    0.0000 C   0  0  0  0  0  4           0  0  0
    2.2624   -1.1179    0.0275 C   0  0  0  0  0  4           0  0  0
   -1.5775    0.0288    4.0147 C   0  0  0  0  0  4           0  0  0
   -4.2579    1.1509    9.1864 C   0  0  0  0  0  4           0  0  0
   -3.7559    0.1729   10.0829 C   0  0  0  0  0  4           0  0  0
   -3.5692    1.3509    7.9642 C   0  0  0  0  0  4           0  0  0
   -2.4333    0.5942    7.6457 C   0  0  0  0  0  4           0  0  0
   -0.5411   -0.0000    1.3972 C   0  0  0  0  0  4           0  0  0
   -0.5138    0.8687    3.6693 C   0  0  0  0  0  4           0  0  0
   -2.1234   -0.8222    3.0487 C   0  0  0  0  0  4           0  0  0
   -5.4141    1.8703    9.5681 C   0  0  0  0  0  4           0  0  0
   -2.6083   -0.5652    9.7456 C   0  0  0  0  0  4           0  0  0
   -4.4089   -0.0535   11.3058 C   0  0  0  0  0  4           0  0  0
   -1.9478   -0.3592    8.5357 C   0  0  0  0  0  4           0  0  0
   -0.0021    0.8535    2.3689 C   0  0  0  0  0  4           0  0  0
   -1.6108   -0.8332    1.7489 C   0  0  0  0  0  4           0  0  0
   -6.0506    1.6303   10.7870 C   0  0  0  0  0  4           0  0  0
   -5.5480    0.6694   11.6549 C   0  0  0  0  0  4           0  0  0
   -4.0611    2.3478    6.9914 C   0  0  0  0  0  4           0  0  0
    1.6078   -3.0444   -1.3579 C   0  0  0  0  0  4           0  0  0
   -1.7043    0.7845    6.3687 C   0  0  0  0  0  4           0  0  0
    1.6992   -5.0473   -2.6114 C   0  0  0  0  0  4           0  0  0
    0.0000    0.0000   -0.0000 C   0  0  0  0  0  4           0  0  0
    1.7876    2.5193   -0.0145 C   0  0  0  0  0  4           0  0  0
    1.7697   -2.5177    0.0456 C   0  0  0  0  0  4           0  0  0
    2.5337    3.3990    0.9846 C   0  0  0  0  0  4           0  0  0
    2.0703    4.8560    1.0047 C   0  0  0  0  0  4           0  0  0
    2.8315    5.7077    2.0094 C   0  0  0  0  0  4           0  0  0
  1 10  1  0     0  0
  2 29  2  0     0  0
  3 30  2  0     0  0
  4 31  2  0     0  0
  5 30  1  0     0  0
  5 32  1  0     0  0
  6 29  1  0     0  0
  7 11  1  0     0  0
  7 12  1  0     0  0
  7 33  1  0     0  0
  8 10  1  0     0  0
  8 11  2  0     0  0
  9 13  1  0     0  0
  9 31  1  0     0  0
 10 12  2  0     0  0
 11 34  1  0     0  0
 12 35  1  0     0  0
 13 19  2  0     0  0
 13 20  1  0     0  0
 14 15  1  0     0  0
 14 16  2  0     0  0
 14 21  1  0     0  0
 15 22  2  0     0  0
 15 23  1  0     0  0
 16 17  1  0     0  0
 16 29  1  0     0  0
 17 24  2  0     0  0
 17 31  1  0     0  0
 18 25  2  0     0  0
 18 26  1  0     0  0
 18 33  1  0     0  0
 19 25  1  0     0  0
 20 26  2  0     0  0
 21 27  2  0     0  0
 22 24  1  0     0  0
 23 28  2  0     0  0
 27 28  1  0     0  0
 30 35  1  0     0  0
 34 36  1  0     0  0
 36 37  1  0     0  0
 37 38  1  0     0  0
M  END
> <standard_type>
pIC50

> <# Confs.>
25

> <canonical_smiles>
CCCCC1=NC(Cl)=C(CC(OC)=O)N1CC2=CC=C(NC(C3=CC=C(C=CC=C4)C4=C3C(O)=O)=O)C=C2

> <standard_relation>
=

> <Publication_ID>
nan

> <predicted_activity_value>
5.522878745280337

> <actual_activity_value>
5.236572006437063

> <Compound>
19

> <standard_units>
nM

> hash
9828163350660041123

$$$$
19_
XXILIB    08252103513D 0   0.00000     0.00000

 38 41  0     1  0            999 V2000
    5.0019   -1.4987    0.0650 Cl  0  0  0  0  0  1           0  0  0
   -4.8629    2.0643    6.1128 O   0  0  0  0  0  2           0  0  0
    1.3331   -2.3760   -2.3456 O   0  0  0  0  0  2           0  0  0
   -0.7871    1.6010    6.3205 O   0  0  0  0  0  2           0  0  0
    1.8185   -4.3938   -1.3440 O   0  0  0  0  0  2           0  0  0
   -3.5549    3.5918    7.1600 O   0  0  0  0  0  2           0  0  0
    1.4522   -0.0000    0.0000 N   0  0  0  0  0  3           0  0  0
    3.5396    0.7595    0.0143 N   0  0  0  0  0  3           0  0  0
   -2.1292    0.0062    5.3101 N   0  0  0  0  0  3           0  0  0
    3.5478   -0.6103    0.0330 C   0  0  0  0  0  4           0  0  0
    2.2701    1.1133    0.0000 C   0  0  0  0  0  4           0  0  0
    2.2624   -1.1179    0.0275 C   0  0  0  0  0  4           0  0  0
   -1.5775    0.0288    4.0147 C   0  0  0  0  0  4           0  0  0
   -4.2579    1.1509    9.1864 C   0  0  0  0  0  4           0  0  0
   -3.7559    0.1729   10.0829 C   0  0  0  0  0  4           0  0  0
   -3.5692    1.3509    7.9642 C   0  0  0  0  0  4           0  0  0
   -2.4333    0.5942    7.6457 C   0  0  0  0  0  4           0  0  0
   -0.5411   -0.0000    1.3972 C   0  0  0  0  0  4           0  0  0
   -0.5138    0.8687    3.6693 C   0  0  0  0  0  4           0  0  0
   -2.1234   -0.8222    3.0487 C   0  0  0  0  0  4           0  0  0
   -5.4141    1.8703    9.5681 C   0  0  0  0  0  4           0  0  0
   -2.6083   -0.5652    9.7456 C   0  0  0  0  0  4           0  0  0
   -4.4089   -0.0535   11.3058 C   0  0  0  0  0  4           0  0  0
   -1.9478   -0.3592    8.5357 C   0  0  0  0  0  4           0  0  0
   -0.0021    0.8535    2.3689 C   0  0  0  0  0  4           0  0  0
   -1.6108   -0.8332    1.7489 C   0  0  0  0  0  4           0  0  0
   -6.0506    1.6303   10.7870 C   0  0  0  0  0  4           0  0  0
   -5.5480    0.6694   11.6549 C   0  0  0  0  0  4           0  0  0
   -4.0611    2.3478    6.9914 C   0  0  0  0  0  4           0  0  0
    1.6078   -3.0444   -1.3579 C   0  0  0  0  0  4           0  0  0
   -1.7043    0.7845    6.3687 C   0  0  0  0  0  4           0  0  0
    1.6992   -5.0473   -2.6114 C   0  0  0  0  0  4           0  0  0
    0.0000    0.0000   -0.0000 C   0  0  0  0  0  4           0  0  0
    1.7876    2.5193   -0.0145 C   0  0  0  0  0  4           0  0  0
    1.7697   -2.5177    0.0456 C   0  0  0  0  0  4           0  0  0
    2.5528    3.3849   -1.0114 C   0  0  0  0  0  4           0  0  0
    2.0900    4.8415   -1.0609 C   0  0  0  0  0  4           0  0  0
    2.8704    5.6791   -2.0627 C   0  0  0  0  0  4           0  0  0
  1 10  1  0     0  0
  2 29  2  0     0  0
  3 30  2  0     0  0
  4 31  2  0     0  0
  5 30  1  0     0  0
  5 32  1  0     0  0
  6 29  1  0     0  0
  7 11  1  0     0  0
  7 12  1  0     0  0
  7 33  1  0     0  0
  8 10  1  0     0  0
  8 11  2  0     0  0
  9 13  1  0     0  0
  9 31  1  0     0  0
 10 12  2  0     0  0
 11 34  1  0     0  0
 12 35  1  0     0  0
 13 19  2  0     0  0
 13 20  1  0     0  0
 14 15  1  0     0  0
 14 16  2  0     0  0
 14 21  1  0     0  0
 15 22  2  0     0  0
 15 23  1  0     0  0
 16 17  1  0     0  0
 16 29  1  0     0  0
 17 24  2  0     0  0
 17 31  1  0     0  0
 18 25  2  0     0  0
 18 26  1  0     0  0
 18 33  1  0     0  0
 19 25  1  0     0  0
 20 26  2  0     0  0
 21 27  2  0     0  0
 22 24  1  0     0  0
 23 28  2  0     0  0
 27 28  1  0     0  0
 30 35  1  0     0  0
 34 36  1  0     0  0
 36 37  1  0     0  0
 37 38  1  0     0  0
M  END
> <standard_type>
pIC50

> <# Confs.>
25

> <canonical_smiles>
CCCCC1=NC(Cl)=C(CC(OC)=O)N1CC2=CC=C(NC(C3=CC=C(C=CC=C4)C4=C3C(O)=O)=O)C=C2

> <standard_relation>
=

> <Publication_ID>
nan

> <predicted_activity_value>
5.522878745280337

> <actual_activity_value>
5.236572006437063

> <Compound>
19

> <standard_units>
nM

> hash
9828163350660041123

$$$$
19_
XXILIB    08252103513D 0   0.00000     0.00000

 38 41  0     1  0            999 V2000
    5.0019    1.4987   -0.0650 Cl  0  0  0  0  0  1           0  0  0
   -4.8629    2.0643    6.1128 O   0  0  0  0  0  2           0  0  0
    1.2816    2.2961   -2.4208 O   0  0  0  0  0  2           0  0  0
   -0.7871    1.6010    6.3205 O   0  0  0  0  0  2           0  0  0
    1.7888    4.3459   -1.4983 O   0  0  0  0  0  2           0  0  0
   -3.5549    3.5918    7.1600 O   0  0  0  0  0  2           0  0  0
    1.4522   -0.0000   -0.0000 N   0  0  0  0  0  3           0  0  0
    3.5396   -0.7595   -0.0143 N   0  0  0  0  0  3           0  0  0
   -2.1292    0.0062    5.3101 N   0  0  0  0  0  3           0  0  0
    3.5478    0.6103   -0.0330 C   0  0  0  0  0  4           0  0  0
    2.2701   -1.1133    0.0000 C   0  0  0  0  0  4           0  0  0
    2.2624    1.1179   -0.0275 C   0  0  0  0  0  4           0  0  0
   -1.5775    0.0288    4.0147 C   0  0  0  0  0  4           0  0  0
   -4.2579    1.1509    9.1864 C   0  0  0  0  0  4           0  0  0
   -3.7559    0.1729   10.0829 C   0  0  0  0  0  4           0  0  0
   -3.5692    1.3509    7.9642 C   0  0  0  0  0  4           0  0  0
   -2.4333    0.5942    7.6457 C   0  0  0  0  0  4           0  0  0
   -0.5411   -0.0000    1.3972 C   0  0  0  0  0  4           0  0  0
   -0.5138    0.8687    3.6693 C   0  0  0  0  0  4           0  0  0
   -2.1234   -0.8222    3.0487 C   0  0  0  0  0  4           0  0  0
   -5.4141    1.8703    9.5681 C   0  0  0  0  0  4           0  0  0
   -2.6083   -0.5652    9.7456 C   0  0  0  0  0  4           0  0  0
   -4.4089   -0.0535   11.3058 C   0  0  0  0  0  4           0  0  0
   -1.9478   -0.3592    8.5357 C   0  0  0  0  0  4           0  0  0
   -0.0021    0.8535    2.3689 C   0  0  0  0  0  4           0  0  0
   -1.6108   -0.8332    1.7489 C   0  0  0  0  0  4           0  0  0
   -6.0506    1.6303   10.7870 C   0  0  0  0  0  4           0  0  0
   -5.5480    0.6694   11.6549 C   0  0  0  0  0  4           0  0  0
   -4.0611    2.3478    6.9914 C   0  0  0  0  0  4           0  0  0
    1.5773    2.9971   -1.4622 C   0  0  0  0  0  4           0  0  0
   -1.7043    0.7845    6.3687 C   0  0  0  0  0  4           0  0  0
    1.6432    4.9565   -2.7842 C   0  0  0  0  0  4           0  0  0
    0.0000    0.0000   -0.0000 C   0  0  0  0  0  4           0  0  0
    1.7876   -2.5193    0.0145 C   0  0  0  0  0  4           0  0  0
    1.7697    2.5177   -0.0456 C   0  0  0  0  0  4           0  0  0
    2.9343   -3.5262    0.0106 C   0  0  0  0  0  4           0  0  0
    2.4848   -4.9876    0.0252 C   0  0  0  0  0  4           0  0  0
    3.6487   -5.9673    0.0209 C   0  0  0  0  0  4           0  0  0
  1 10  1  0     0  0
  2 29  2  0     0  0
  3 30  2  0     0  0
  4 31  2  0     0  0
  5 30  1  0     0  0
  5 32  1  0     0  0
  6 29  1  0     0  0
  7 11  1  0     0  0
  7 12  1  0     0  0
  7 33  1  0     0  0
  8 10  1  0     0  0
  8 11  2  0     0  0
  9 13  1  0     0  0
  9 31  1  0     0  0
 10 12  2  0     0  0
 11 34  1  0     0  0
 12 35  1  0     0  0
 13 19  2  0     0  0
 13 20  1  0     0  0
 14 15  1  0     0  0
 14 16  2  0     0  0
 14 21  1  0     0  0
 15 22  2  0     0  0
 15 23  1  0     0  0
 16 17  1  0     0  0
 16 29  1  0     0  0
 17 24  2  0     0  0
 17 31  1  0     0  0
 18 25  2  0     0  0
 18 26  1  0     0  0
 18 33  1  0     0  0
 19 25  1  0     0  0
 20 26  2  0     0  0
 21 27  2  0     0  0
 22 24  1  0     0  0
 23 28  2  0     0  0
 27 28  1  0     0  0
 30 35  1  0     0  0
 34 36  1  0     0  0
 36 37  1  0     0  0
 37 38  1  0     0  0
M  END
> <standard_type>
pIC50

> <# Confs.>
25

> <canonical_smiles>
CCCCC1=NC(Cl)=C(CC(OC)=O)N1CC2=CC=C(NC(C3=CC=C(C=CC=C4)C4=C3C(O)=O)=O)C=C2

> <standard_relation>
=

> <Publication_ID>
nan

> <predicted_activity_value>
5.522878745280337

> <actual_activity_value>
5.236572006437063

> <Compound>
19

> <standard_units>
nM

> hash
9828163350660041123

$$$$
19_
XXILIB    08252103513D 0   0.00000     0.00000

 38 41  0     1  0            999 V2000
    5.0019    1.4987   -0.0650 Cl  0  0  0  0  0  1           0  0  0
   -3.9820    3.2959    6.7992 O   0  0  0  0  0  2           0  0  0
    1.2816    2.2961   -2.4208 O   0  0  0  0  0  2           0  0  0
   -0.7871    1.6010    6.3205 O   0  0  0  0  0  2           0  0  0
    1.7888    4.3459   -1.4983 O   0  0  0  0  0  2           0  0  0
   -2.1283    3.7969    8.0049 O   0  0  0  0  0  2           0  0  0
    1.4522   -0.0000   -0.0000 N   0  0  0  0  0  3           0  0  0
    3.5396   -0.7595   -0.0143 N   0  0  0  0  0  3           0  0  0
   -2.1292    0.0062    5.3101 N   0  0  0  0  0  3           0  0  0
    3.5478    0.6103   -0.0330 C   0  0  0  0  0  4           0  0  0
    2.2701   -1.1133    0.0000 C   0  0  0  0  0  4           0  0  0
    2.2624    1.1179   -0.0275 C   0  0  0  0  0  4           0  0  0
   -1.5775    0.0288    4.0147 C   0  0  0  0  0  4           0  0  0
   -3.8166    1.4463    9.4823 C   0  0  0  0  0  4           0  0  0
   -3.7884    0.1516   10.0612 C   0  0  0  0  0  4           0  0  0
   -3.1192    1.6478    8.2653 C   0  0  0  0  0  4           0  0  0
   -2.4333    0.5942    7.6457 C   0  0  0  0  0  4           0  0  0
   -0.5411   -0.0000    1.3972 C   0  0  0  0  0  4           0  0  0
   -0.5138    0.8687    3.6693 C   0  0  0  0  0  4           0  0  0
   -2.1234   -0.8222    3.0487 C   0  0  0  0  0  4           0  0  0
   -4.5366    2.4596   10.1568 C   0  0  0  0  0  4           0  0  0
   -3.0840   -0.8859    9.4263 C   0  0  0  0  0  4           0  0  0
   -4.4653   -0.0880   11.2684 C   0  0  0  0  0  4           0  0  0
   -2.4092   -0.6705    8.2260 C   0  0  0  0  0  4           0  0  0
   -0.0021    0.8535    2.3689 C   0  0  0  0  0  4           0  0  0
   -1.6108   -0.8332    1.7489 C   0  0  0  0  0  4           0  0  0
   -5.2047    2.2023   11.3551 C   0  0  0  0  0  4           0  0  0
   -5.1687    0.9296   11.9102 C   0  0  0  0  0  4           0  0  0
   -3.1306    2.9746    7.6159 C   0  0  0  0  0  4           0  0  0
    1.5773    2.9971   -1.4622 C   0  0  0  0  0  4           0  0  0
   -1.7043    0.7845    6.3687 C   0  0  0  0  0  4           0  0  0
    1.6432    4.9565   -2.7842 C   0  0  0  0  0  4           0  0  0
    0.0000    0.0000   -0.0000 C   0  0  0  0  0  4           0  0  0
    1.7876   -2.5193    0.0145 C   0  0  0  0  0  4           0  0  0
    1.7697    2.5177   -0.0456 C   0  0  0  0  0  4           0  0  0
    1.5858   -3.0778   -1.3913 C   0  0  0  0  0  4           0  0  0
    2.8524   -3.0910   -2.2478 C   0  0  0  0  0  4           0  0  0
    2.6206   -3.6526   -3.6426 C   0  0  0  0  0  4           0  0  0
  1 10  1  0     0  0
  2 29  2  0     0  0
  3 30  2  0     0  0
  4 31  2  0     0  0
  5 30  1  0     0  0
  5 32  1  0     0  0
  6 29  1  0     0  0
  7 11  1  0     0  0
  7 12  1  0     0  0
  7 33  1  0     0  0
  8 10  1  0     0  0
  8 11  2  0     0  0
  9 13  1  0     0  0
  9 31  1  0     0  0
 10 12  2  0     0  0
 11 34  1  0     0  0
 12 35  1  0     0  0
 13 19  2  0     0  0
 13 20  1  0     0  0
 14 15  1  0     0  0
 14 16  2  0     0  0
 14 21  1  0     0  0
 15 22  2  0     0  0
 15 23  1  0     0  0
 16 17  1  0     0  0
 16 29  1  0     0  0
 17 24  2  0     0  0
 17 31  1  0     0  0
 18 25  2  0     0  0
 18 26  1  0     0  0
 18 33  1  0     0  0
 19 25  1  0     0  0
 20 26  2  0     0  0
 21 27  2  0     0  0
 22 24  1  0     0  0
 23 28  2  0     0  0
 27 28  1  0     0  0
 30 35  1  0     0  0
 34 36  1  0     0  0
 36 37  1  0     0  0
 37 38  1  0     0  0
M  END
> <standard_type>
pIC50

> <# Confs.>
25

> <canonical_smiles>
CCCCC1=NC(Cl)=C(CC(OC)=O)N1CC2=CC=C(NC(C3=CC=C(C=CC=C4)C4=C3C(O)=O)=O)C=C2

> <standard_relation>
=

> <Publication_ID>
nan

> <predicted_activity_value>
5.522878745280337

> <actual_activity_value>
5.236572006437063

> <Compound>
19

> <standard_units>
nM

> hash
9828163350660041123

$$$$
19_
XXILIB    08252103513D 0   0.00000     0.00000

 38 41  0     1  0            999 V2000
    5.0019    1.4987   -0.0650 Cl  0  0  0  0  0  1           0  0  0
   -5.8824   -1.2579    6.0632 O   0  0  0  0  0  2           0  0  0
    1.7906    2.3427   -2.4741 O   0  0  0  0  0  2           0  0  0
   -3.7241    1.5485    5.1831 O   0  0  0  0  0  2           0  0  0
    1.1252    4.2855   -1.4287 O   0  0  0  0  0  2           0  0  0
   -6.5139    0.9061    6.3065 O   0  0  0  0  0  2           0  0  0
    1.4522   -0.0000   -0.0000 N   0  0  0  0  0  3           0  0  0
    3.5396   -0.7595   -0.0143 N   0  0  0  0  0  3           0  0  0
   -2.0717   -0.0680    5.3323 N   0  0  0  0  0  3           0  0  0
    3.5478    0.6103   -0.0330 C   0  0  0  0  0  4           0  0  0
    2.2701   -1.1133    0.0000 C   0  0  0  0  0  4           0  0  0
    2.2624    1.1179   -0.0275 C   0  0  0  0  0  4           0  0  0
   -1.5846   -0.0213    4.0120 C   0  0  0  0  0  4           0  0  0
   -5.0397   -0.1347    9.0086 C   0  0  0  0  0  4           0  0  0
   -4.0236    0.1007    9.9701 C   0  0  0  0  0  4           0  0  0
   -4.7268    0.0762    7.6427 C   0  0  0  0  0  4           0  0  0
   -3.4461    0.4920    7.2535 C   0  0  0  0  0  4           0  0  0
   -0.5411    0.0000    1.3972 C   0  0  0  0  0  4           0  0  0
   -2.1127    0.8460    3.0501 C   0  0  0  0  0  4           0  0  0
   -0.5368   -0.8791    3.6631 C   0  0  0  0  0  4           0  0  0
   -6.3057   -0.5626    9.4717 C   0  0  0  0  0  4           0  0  0
   -2.7505    0.5282    9.5554 C   0  0  0  0  0  4           0  0  0
   -4.2950   -0.0946   11.3343 C   0  0  0  0  0  4           0  0  0
   -2.4591    0.7241    8.2067 C   0  0  0  0  0  4           0  0  0
   -1.5939    0.8535    1.7524 C   0  0  0  0  0  4           0  0  0
   -0.0220   -0.8705    2.3641 C   0  0  0  0  0  4           0  0  0
   -6.5563   -0.7529   10.8317 C   0  0  0  0  0  4           0  0  0
   -5.5518   -0.5188   11.7619 C   0  0  0  0  0  4           0  0  0
   -5.7468   -0.1690    6.6027 C   0  0  0  0  0  4           0  0  0
    1.5773    2.9971   -1.4622 C   0  0  0  0  0  4           0  0  0
   -3.0985    0.7106    5.8288 C   0  0  0  0  0  4           0  0  0
    0.8924    4.8884   -2.7053 C   0  0  0  0  0  4           0  0  0
    0.0000    0.0000   -0.0000 C   0  0  0  0  0  4           0  0  0
    1.7876   -2.5193    0.0145 C   0  0  0  0  0  4           0  0  0
    1.7697    2.5177   -0.0456 C   0  0  0  0  0  4           0  0  0
    2.5337   -3.3990   -0.9846 C   0  0  0  0  0  4           0  0  0
    2.4088   -2.9408   -2.4381 C   0  0  0  0  0  4           0  0  0
    3.1624   -3.8361   -3.4101 C   0  0  0  0  0  4           0  0  0
  1 10  1  0     0  0
  2 29  2  0     0  0
  3 30  2  0     0  0
  4 31  2  0     0  0
  5 30  1  0     0  0
  5 32  1  0     0  0
  6 29  1  0     0  0
  7 11  1  0     0  0
  7 12  1  0     0  0
  7 33  1  0     0  0
  8 10  1  0     0  0
  8 11  2  0     0  0
  9 13  1  0     0  0
  9 31  1  0     0  0
 10 12  2  0     0  0
 11 34  1  0     0  0
 12 35  1  0     0  0
 13 19  2  0     0  0
 13 20  1  0     0  0
 14 15  1  0     0  0
 14 16  2  0     0  0
 14 21  1  0     0  0
 15 22  2  0     0  0
 15 23  1  0     0  0
 16 17  1  0     0  0
 16 29  1  0     0  0
 17 24  2  0     0  0
 17 31  1  0     0  0
 18 25  2  0     0  0
 18 26  1  0     0  0
 18 33  1  0     0  0
 19 25  1  0     0  0
 20 26  2  0     0  0
 21 27  2  0     0  0
 22 24  1  0     0  0
 23 28  2  0     0  0
 27 28  1  0     0  0
 30 35  1  0     0  0
 34 36  1  0     0  0
 36 37  1  0     0  0
 37 38  1  0     0  0
M  END
> <standard_type>
pIC50

> <# Confs.>
25

> <canonical_smiles>
CCCCC1=NC(Cl)=C(CC(OC)=O)N1CC2=CC=C(NC(C3=CC=C(C=CC=C4)C4=C3C(O)=O)=O)C=C2

> <standard_relation>
=

> <Publication_ID>
nan

> <predicted_activity_value>
5.522878745280337

> <actual_activity_value>
5.236572006437063

> <Compound>
19

> <standard_units>
nM

> hash
9828163350660041123

$$$$
19_
XXILIB    08252103513D 0   0.00000     0.00000

 38 41  0     1  0            999 V2000
    5.0019    1.4987   -0.0650 Cl  0  0  0  0  0  1           0  0  0
   -3.9820    3.2959    6.7992 O   0  0  0  0  0  2           0  0  0
    1.2816    2.2961   -2.4208 O   0  0  0  0  0  2           0  0  0
   -0.7871    1.6010    6.3205 O   0  0  0  0  0  2           0  0  0
    1.7888    4.3459   -1.4983 O   0  0  0  0  0  2           0  0  0
   -2.1283    3.7969    8.0049 O   0  0  0  0  0  2           0  0  0
    1.4522   -0.0000   -0.0000 N   0  0  0  0  0  3           0  0  0
    3.5396   -0.7595   -0.0143 N   0  0  0  0  0  3           0  0  0
   -2.1292    0.0062    5.3101 N   0  0  0  0  0  3           0  0  0
    3.5478    0.6103   -0.0330 C   0  0  0  0  0  4           0  0  0
    2.2701   -1.1133    0.0000 C   0  0  0  0  0  4           0  0  0
    2.2624    1.1179   -0.0275 C   0  0  0  0  0  4           0  0  0
   -1.5775    0.0288    4.0147 C   0  0  0  0  0  4           0  0  0
   -3.8166    1.4463    9.4823 C   0  0  0  0  0  4           0  0  0
   -3.7884    0.1516   10.0612 C   0  0  0  0  0  4           0  0  0
   -3.1192    1.6478    8.2653 C   0  0  0  0  0  4           0  0  0
   -2.4333    0.5942    7.6457 C   0  0  0  0  0  4           0  0  0
   -0.5411   -0.0000    1.3972 C   0  0  0  0  0  4           0  0  0
   -0.5138    0.8687    3.6693 C   0  0  0  0  0  4           0  0  0
   -2.1234   -0.8222    3.0487 C   0  0  0  0  0  4           0  0  0
   -4.5366    2.4596   10.1568 C   0  0  0  0  0  4           0  0  0
   -3.0840   -0.8859    9.4263 C   0  0  0  0  0  4           0  0  0
   -4.4653   -0.0880   11.2684 C   0  0  0  0  0  4           0  0  0
   -2.4092   -0.6705    8.2260 C   0  0  0  0  0  4           0  0  0
   -0.0021    0.8535    2.3689 C   0  0  0  0  0  4           0  0  0
   -1.6108   -0.8332    1.7489 C   0  0  0  0  0  4           0  0  0
   -5.2047    2.2023   11.3551 C   0  0  0  0  0  4           0  0  0
   -5.1687    0.9296   11.9102 C   0  0  0  0  0  4           0  0  0
   -3.1306    2.9746    7.6159 C   0  0  0  0  0  4           0  0  0
    1.5773    2.9971   -1.4622 C   0  0  0  0  0  4           0  0  0
   -1.7043    0.7845    6.3687 C   0  0  0  0  0  4           0  0  0
    1.6432    4.9565   -2.7842 C   0  0  0  0  0  4           0  0  0
    0.0000    0.0000   -0.0000 C   0  0  0  0  0  4           0  0  0
    1.7876   -2.5193    0.0145 C   0  0  0  0  0  4           0  0  0
    1.7697    2.5177   -0.0456 C   0  0  0  0  0  4           0  0  0
    1.6128   -3.0580    1.4316 C   0  0  0  0  0  4           0  0  0
    2.8955   -3.0593    2.2639 C   0  0  0  0  0  4           0  0  0
    2.6905   -3.6012    3.6705 C   0  0  0  0  0  4           0  0  0
  1 10  1  0     0  0
  2 29  2  0     0  0
  3 30  2  0     0  0
  4 31  2  0     0  0
  5 30  1  0     0  0
  5 32  1  0     0  0
  6 29  1  0     0  0
  7 11  1  0     0  0
  7 12  1  0     0  0
  7 33  1  0     0  0
  8 10  1  0     0  0
  8 11  2  0     0  0
  9 13  1  0     0  0
  9 31  1  0     0  0
 10 12  2  0     0  0
 11 34  1  0     0  0
 12 35  1  0     0  0
 13 19  2  0     0  0
 13 20  1  0     0  0
 14 15  1  0     0  0
 14 16  2  0     0  0
 14 21  1  0     0  0
 15 22  2  0     0  0
 15 23  1  0     0  0
 16 17  1  0     0  0
 16 29  1  0     0  0
 17 24  2  0     0  0
 17 31  1  0     0  0
 18 25  2  0     0  0
 18 26  1  0     0  0
 18 33  1  0     0  0
 19 25  1  0     0  0
 20 26  2  0     0  0
 21 27  2  0     0  0
 22 24  1  0     0  0
 23 28  2  0     0  0
 27 28  1  0     0  0
 30 35  1  0     0  0
 34 36  1  0     0  0
 36 37  1  0     0  0
 37 38  1  0     0  0
M  END
> <standard_type>
pIC50

> <# Confs.>
25

> <canonical_smiles>
CCCCC1=NC(Cl)=C(CC(OC)=O)N1CC2=CC=C(NC(C3=CC=C(C=CC=C4)C4=C3C(O)=O)=O)C=C2

> <standard_relation>
=

> <Publication_ID>
nan

> <predicted_activity_value>
5.522878745280337

> <actual_activity_value>
5.236572006437063

> <Compound>
19

> <standard_units>
nM

> hash
9828163350660041123

$$$$
19_
XXILIB    08252103513D 0   0.00000     0.00000

 38 41  0     1  0            999 V2000
    5.0019   -1.4987    0.0650 Cl  0  0  0  0  0  1           0  0  0
   -5.9198    0.1309    6.3123 O   0  0  0  0  0  2           0  0  0
    1.8432   -2.4242   -2.3863 O   0  0  0  0  0  2           0  0  0
   -2.1965   -2.2271    5.7747 O   0  0  0  0  0  2           0  0  0
    1.1536   -4.3307   -1.2910 O   0  0  0  0  0  2           0  0  0
   -5.1077   -1.9657    6.0195 O   0  0  0  0  0  2           0  0  0
    1.4522   -0.0000    0.0000 N   0  0  0  0  0  3           0  0  0
    3.5396    0.7595    0.0143 N   0  0  0  0  0  3           0  0  0
   -2.0170    0.0436    5.3535 N   0  0  0  0  0  3           0  0  0
    3.5478   -0.6103    0.0330 C   0  0  0  0  0  4           0  0  0
    2.2701    1.1133    0.0000 C   0  0  0  0  0  4           0  0  0
    2.2624   -1.1179    0.0275 C   0  0  0  0  0  4           0  0  0
   -1.5247   -0.0054    4.0352 C   0  0  0  0  0  4           0  0  0
   -4.6606   -0.3446    9.0635 C   0  0  0  0  0  4           0  0  0
   -3.7019   -0.2224   10.1018 C   0  0  0  0  0  4           0  0  0
   -4.1936   -0.6138    7.7530 C   0  0  0  0  0  4           0  0  0
   -2.8247   -0.7680    7.4941 C   0  0  0  0  0  4           0  0  0
   -0.5411   -0.0000    1.3972 C   0  0  0  0  0  4           0  0  0
   -1.2877   -1.2124    3.3696 C   0  0  0  0  0  4           0  0  0
   -1.2661    1.2030    3.3807 C   0  0  0  0  0  4           0  0  0
   -6.0256   -0.1870    9.3984 C   0  0  0  0  0  4           0  0  0
   -2.3338   -0.3701    9.8147 C   0  0  0  0  0  4           0  0  0
   -4.1246    0.0465   11.4140 C   0  0  0  0  0  4           0  0  0
   -1.8935   -0.6412    8.5205 C   0  0  0  0  0  4           0  0  0
   -0.7980   -1.2070    2.0606 C   0  0  0  0  0  4           0  0  0
   -0.7744    1.2047    2.0728 C   0  0  0  0  0  4           0  0  0
   -6.4270    0.0784   10.7087 C   0  0  0  0  0  4           0  0  0
   -5.4771    0.1951   11.7153 C   0  0  0  0  0  4           0  0  0
   -5.1538   -0.7639    6.6406 C   0  0  0  0  0  4           0  0  0
    1.6078   -3.0444   -1.3579 C   0  0  0  0  0  4           0  0  0
   -2.3183   -1.0571    6.1309 C   0  0  0  0  0  4           0  0  0
    0.9470   -4.9757   -2.5515 C   0  0  0  0  0  4           0  0  0
    0.0000    0.0000    0.0000 C   0  0  0  0  0  4           0  0  0
    1.7876    2.5193   -0.0145 C   0  0  0  0  0  4           0  0  0
    1.7697   -2.5177    0.0456 C   0  0  0  0  0  4           0  0  0
    2.5528    3.3849   -1.0114 C   0  0  0  0  0  4           0  0  0
    2.0900    4.8415   -1.0609 C   0  0  0  0  0  4           0  0  0
    2.8704    5.6791   -2.0627 C   0  0  0  0  0  4           0  0  0
  1 10  1  0     0  0
  2 29  2  0     0  0
  3 30  2  0     0  0
  4 31  2  0     0  0
  5 30  1  0     0  0
  5 32  1  0     0  0
  6 29  1  0     0  0
  7 11  1  0     0  0
  7 12  1  0     0  0
  7 33  1  0     0  0
  8 10  1  0     0  0
  8 11  2  0     0  0
  9 13  1  0     0  0
  9 31  1  0     0  0
 10 12  2  0     0  0
 11 34  1  0     0  0
 12 35  1  0     0  0
 13 19  2  0     0  0
 13 20  1  0     0  0
 14 15  1  0     0  0
 14 16  2  0     0  0
 14 21  1  0     0  0
 15 22  2  0     0  0
 15 23  1  0     0  0
 16 17  1  0     0  0
 16 29  1  0     0  0
 17 24  2  0     0  0
 17 31  1  0     0  0
 18 25  2  0     0  0
 18 26  1  0     0  0
 18 33  1  0     0  0
 19 25  1  0     0  0
 20 26  2  0     0  0
 21 27  2  0     0  0
 22 24  1  0     0  0
 23 28  2  0     0  0
 27 28  1  0     0  0
 30 35  1  0     0  0
 34 36  1  0     0  0
 36 37  1  0     0  0
 37 38  1  0     0  0
M  END
> <standard_type>
pIC50

> <# Confs.>
25

> <canonical_smiles>
CCCCC1=NC(Cl)=C(CC(OC)=O)N1CC2=CC=C(NC(C3=CC=C(C=CC=C4)C4=C3C(O)=O)=O)C=C2

> <standard_relation>
=

> <Publication_ID>
nan

> <predicted_activity_value>
5.522878745280337

> <actual_activity_value>
5.236572006437063

> <Compound>
19

> <standard_units>
nM

> hash
9828163350660041123

$$$$
19_
XXILIB    08252103513D 0   0.00000     0.00000

 38 41  0     1  0            999 V2000
    5.0019    1.4987   -0.0650 Cl  0  0  0  0  0  1           0  0  0
   -0.6308    1.9882    7.8541 O   0  0  0  0  0  2           0  0  0
    1.2816    2.2961   -2.4208 O   0  0  0  0  0  2           0  0  0
   -3.7241    1.5485    5.1831 O   0  0  0  0  0  2           0  0  0
    1.7888    4.3459   -1.4983 O   0  0  0  0  0  2           0  0  0
   -2.3362    3.4740    7.6967 O   0  0  0  0  0  2           0  0  0
    1.4522   -0.0000   -0.0000 N   0  0  0  0  0  3           0  0  0
    3.5396   -0.7595   -0.0143 N   0  0  0  0  0  3           0  0  0
   -2.0717   -0.0680    5.3323 N   0  0  0  0  0  3           0  0  0
    3.5478    0.6103   -0.0330 C   0  0  0  0  0  4           0  0  0
    2.2701   -1.1133    0.0000 C   0  0  0  0  0  4           0  0  0
    2.2624    1.1179   -0.0275 C   0  0  0  0  0  4           0  0  0
   -1.5846   -0.0213    4.0120 C   0  0  0  0  0  4           0  0  0
   -3.1797    1.0024    9.6370 C   0  0  0  0  0  4           0  0  0
   -4.1605    0.0187    9.9241 C   0  0  0  0  0  4           0  0  0
   -2.8301    1.2194    8.2810 C   0  0  0  0  0  4           0  0  0
   -3.4461    0.4920    7.2535 C   0  0  0  0  0  4           0  0  0
   -0.5411    0.0000    1.3972 C   0  0  0  0  0  4           0  0  0
   -2.1127    0.8460    3.0501 C   0  0  0  0  0  4           0  0  0
   -0.5368   -0.8791    3.6631 C   0  0  0  0  0  4           0  0  0
   -2.6069    1.7055   10.7223 C   0  0  0  0  0  4           0  0  0
   -4.7557   -0.7056    8.8768 C   0  0  0  0  0  4           0  0  0
   -4.5327   -0.2277   11.2559 C   0  0  0  0  0  4           0  0  0
   -4.4037   -0.4738    7.5484 C   0  0  0  0  0  4           0  0  0
   -1.5939    0.8535    1.7524 C   0  0  0  0  0  4           0  0  0
   -0.0220   -0.8705    2.3641 C   0  0  0  0  0  4           0  0  0
   -2.9908    1.4480   12.0394 C   0  0  0  0  0  4           0  0  0
   -3.9527    0.4820   12.3056 C   0  0  0  0  0  4           0  0  0
   -1.8243    2.2429    7.9299 C   0  0  0  0  0  4           0  0  0
    1.5773    2.9971   -1.4622 C   0  0  0  0  0  4           0  0  0
   -3.0985    0.7106    5.8288 C   0  0  0  0  0  4           0  0  0
    1.6432    4.9565   -2.7842 C   0  0  0  0  0  4           0  0  0
    0.0000    0.0000   -0.0000 C   0  0  0  0  0  4           0  0  0
    1.7876   -2.5193    0.0145 C   0  0  0  0  0  4           0  0  0
    1.7697    2.5177   -0.0456 C   0  0  0  0  0  4           0  0  0
    2.5528   -3.3849    1.0114 C   0  0  0  0  0  4           0  0  0
    2.0900   -4.8415    1.0609 C   0  0  0  0  0  4           0  0  0
    2.8704   -5.6791    2.0627 C   0  0  0  0  0  4           0  0  0
  1 10  1  0     0  0
  2 29  2  0     0  0
  3 30  2  0     0  0
  4 31  2  0     0  0
  5 30  1  0     0  0
  5 32  1  0     0  0
  6 29  1  0     0  0
  7 11  1  0     0  0
  7 12  1  0     0  0
  7 33  1  0     0  0
  8 10  1  0     0  0
  8 11  2  0     0  0
  9 13  1  0     0  0
  9 31  1  0     0  0
 10 12  2  0     0  0
 11 34  1  0     0  0
 12 35  1  0     0  0
 13 19  2  0     0  0
 13 20  1  0     0  0
 14 15  1  0     0  0
 14 16  2  0     0  0
 14 21  1  0     0  0
 15 22  2  0     0  0
 15 23  1  0     0  0
 16 17  1  0     0  0
 16 29  1  0     0  0
 17 24  2  0     0  0
 17 31  1  0     0  0
 18 25  2  0     0  0
 18 26  1  0     0  0
 18 33  1  0     0  0
 19 25  1  0     0  0
 20 26  2  0     0  0
 21 27  2  0     0  0
 22 24  1  0     0  0
 23 28  2  0     0  0
 27 28  1  0     0  0
 30 35  1  0     0  0
 34 36  1  0     0  0
 36 37  1  0     0  0
 37 38  1  0     0  0
M  END
> <standard_type>
pIC50

> <# Confs.>
25

> <canonical_smiles>
CCCCC1=NC(Cl)=C(CC(OC)=O)N1CC2=CC=C(NC(C3=CC=C(C=CC=C4)C4=C3C(O)=O)=O)C=C2

> <standard_relation>
=

> <Publication_ID>
nan

> <predicted_activity_value>
5.522878745280337

> <actual_activity_value>
5.236572006437063

> <Compound>
19

> <standard_units>
nM

> hash
9828163350660041123

$$$$
19_
XXILIB    08252103513D 0   0.00000     0.00000

 38 41  0     1  0            999 V2000
    5.0019    1.4987   -0.0650 Cl  0  0  0  0  0  1           0  0  0
   -4.6177   -2.3272    6.2078 O   0  0  0  0  0  2           0  0  0
    1.2816    2.2961   -2.4208 O   0  0  0  0  0  2           0  0  0
   -3.7241    1.5485    5.1831 O   0  0  0  0  0  2           0  0  0
    1.7888    4.3459   -1.4983 O   0  0  0  0  0  2           0  0  0
   -6.2242   -0.7293    6.1263 O   0  0  0  0  0  2           0  0  0
    1.4522   -0.0000   -0.0000 N   0  0  0  0  0  3           0  0  0
    3.5396   -0.7595   -0.0143 N   0  0  0  0  0  3           0  0  0
   -2.0717   -0.0680    5.3323 N   0  0  0  0  0  3           0  0  0
    3.5478    0.6103   -0.0330 C   0  0  0  0  0  4           0  0  0
    2.2701   -1.1133    0.0000 C   0  0  0  0  0  4           0  0  0
    2.2624    1.1179   -0.0275 C   0  0  0  0  0  4           0  0  0
   -1.5846   -0.0213    4.0120 C   0  0  0  0  0  4           0  0  0
   -4.7221   -0.6531    9.0066 C   0  0  0  0  0  4           0  0  0
   -4.0465    0.1388    9.9704 C   0  0  0  0  0  4           0  0  0
   -4.4072   -0.4523    7.6396 C   0  0  0  0  0  4           0  0  0
   -3.4461    0.4920    7.2535 C   0  0  0  0  0  4           0  0  0
   -0.5411    0.0000    1.3972 C   0  0  0  0  0  4           0  0  0
   -2.1127    0.8460    3.0501 C   0  0  0  0  0  4           0  0  0
   -0.5368   -0.8791    3.6631 C   0  0  0  0  0  4           0  0  0
   -5.6723   -1.5934    9.4681 C   0  0  0  0  0  4           0  0  0
   -3.0950    1.0871    9.5571 C   0  0  0  0  0  4           0  0  0
   -4.3324   -0.0285   11.3354 C   0  0  0  0  0  4           0  0  0
   -2.7935    1.2661    8.2082 C   0  0  0  0  0  4           0  0  0
   -1.5939    0.8535    1.7524 C   0  0  0  0  0  4           0  0  0
   -0.0220   -0.8705    2.3641 C   0  0  0  0  0  4           0  0  0
   -5.9420   -1.7468   10.8291 C   0  0  0  0  0  4           0  0  0
   -5.2726   -0.9647   11.7616 C   0  0  0  0  0  4           0  0  0
   -5.0734   -1.2623    6.5993 C   0  0  0  0  0  4           0  0  0
    1.5773    2.9971   -1.4622 C   0  0  0  0  0  4           0  0  0
   -3.0985    0.7106    5.8288 C   0  0  0  0  0  4           0  0  0
    1.6432    4.9565   -2.7842 C   0  0  0  0  0  4           0  0  0
    0.0000    0.0000   -0.0000 C   0  0  0  0  0  4           0  0  0
    1.7876   -2.5193    0.0145 C   0  0  0  0  0  4           0  0  0
    1.7697    2.5177   -0.0456 C   0  0  0  0  0  4           0  0  0
    1.5858   -3.0778   -1.3913 C   0  0  0  0  0  4           0  0  0
    1.0893   -4.5237   -1.4256 C   0  0  0  0  0  4           0  0  0
    0.8976   -5.0526   -2.8390 C   0  0  0  0  0  4           0  0  0
  1 10  1  0     0  0
  2 29  2  0     0  0
  3 30  2  0     0  0
  4 31  2  0     0  0
  5 30  1  0     0  0
  5 32  1  0     0  0
  6 29  1  0     0  0
  7 11  1  0     0  0
  7 12  1  0     0  0
  7 33  1  0     0  0
  8 10  1  0     0  0
  8 11  2  0     0  0
  9 13  1  0     0  0
  9 31  1  0     0  0
 10 12  2  0     0  0
 11 34  1  0     0  0
 12 35  1  0     0  0
 13 19  2  0     0  0
 13 20  1  0     0  0
 14 15  1  0     0  0
 14 16  2  0     0  0
 14 21  1  0     0  0
 15 22  2  0     0  0
 15 23  1  0     0  0
 16 17  1  0     0  0
 16 29  1  0     0  0
 17 24  2  0     0  0
 17 31  1  0     0  0
 18 25  2  0     0  0
 18 26  1  0     0  0
 18 33  1  0     0  0
 19 25  1  0     0  0
 20 26  2  0     0  0
 21 27  2  0     0  0
 22 24  1  0     0  0
 23 28  2  0     0  0
 27 28  1  0     0  0
 30 35  1  0     0  0
 34 36  1  0     0  0
 36 37  1  0     0  0
 37 38  1  0     0  0
M  END
> <standard_type>
pIC50

> <# Confs.>
25

> <canonical_smiles>
CCCCC1=NC(Cl)=C(CC(OC)=O)N1CC2=CC=C(NC(C3=CC=C(C=CC=C4)C4=C3C(O)=O)=O)C=C2

> <standard_relation>
=

> <Publication_ID>
nan

> <predicted_activity_value>
5.522878745280337

> <actual_activity_value>
5.236572006437063

> <Compound>
19

> <standard_units>
nM

> hash
9828163350660041123

$$$$
19_
XXILIB    08252103513D 0   0.00000     0.00000

 38 41  0     1  0            999 V2000
    5.0019    1.4987   -0.0650 Cl  0  0  0  0  0  1           0  0  0
   -5.9198    0.1309    6.3123 O   0  0  0  0  0  2           0  0  0
    1.7906    2.3427   -2.4741 O   0  0  0  0  0  2           0  0  0
   -2.1965   -2.2271    5.7747 O   0  0  0  0  0  2           0  0  0
    1.1252    4.2855   -1.4287 O   0  0  0  0  0  2           0  0  0
   -5.1077   -1.9657    6.0195 O   0  0  0  0  0  2           0  0  0
    1.4522   -0.0000   -0.0000 N   0  0  0  0  0  3           0  0  0
    3.5396   -0.7595   -0.0143 N   0  0  0  0  0  3           0  0  0
   -2.0170    0.0436    5.3535 N   0  0  0  0  0  3           0  0  0
    3.5478    0.6103   -0.0330 C   0  0  0  0  0  4           0  0  0
    2.2701   -1.1133    0.0000 C   0  0  0  0  0  4           0  0  0
    2.2624    1.1179   -0.0275 C   0  0  0  0  0  4           0  0  0
   -1.5247   -0.0054    4.0352 C   0  0  0  0  0  4           0  0  0
   -4.6606   -0.3446    9.0635 C   0  0  0  0  0  4           0  0  0
   -3.7019   -0.2224   10.1018 C   0  0  0  0  0  4           0  0  0
   -4.1936   -0.6138    7.7530 C   0  0  0  0  0  4           0  0  0
   -2.8247   -0.7680    7.4941 C   0  0  0  0  0  4           0  0  0
   -0.5411   -0.0000    1.3972 C   0  0  0  0  0  4           0  0  0
   -1.2877   -1.2124    3.3696 C   0  0  0  0  0  4           0  0  0
   -1.2661    1.2030    3.3807 C   0  0  0  0  0  4           0  0  0
   -6.0256   -0.1870    9.3984 C   0  0  0  0  0  4           0  0  0
   -2.3338   -0.3701    9.8147 C   0  0  0  0  0  4           0  0  0
   -4.1246    0.0465   11.4140 C   0  0  0  0  0  4           0  0  0
   -1.8935   -0.6412    8.5205 C   0  0  0  0  0  4           0  0  0
   -0.7980   -1.2070    2.0606 C   0  0  0  0  0  4           0  0  0
   -0.7744    1.2047    2.0728 C   0  0  0  0  0  4           0  0  0
   -6.4270    0.0784   10.7087 C   0  0  0  0  0  4           0  0  0
   -5.4771    0.1951   11.7153 C   0  0  0  0  0  4           0  0  0
   -5.1538   -0.7639    6.6406 C   0  0  0  0  0  4           0  0  0
    1.5773    2.9971   -1.4622 C   0  0  0  0  0  4           0  0  0
   -2.3183   -1.0571    6.1309 C   0  0  0  0  0  4           0  0  0
    0.8924    4.8884   -2.7053 C   0  0  0  0  0  4           0  0  0
    0.0000    0.0000    0.0000 C   0  0  0  0  0  4           0  0  0
    1.7876   -2.5193    0.0145 C   0  0  0  0  0  4           0  0  0
    1.7697    2.5177   -0.0456 C   0  0  0  0  0  4           0  0  0
    2.5337   -3.3990   -0.9846 C   0  0  0  0  0  4           0  0  0
    2.0703   -4.8560   -1.0047 C   0  0  0  0  0  4           0  0  0
    0.6002   -5.0069   -1.3659 C   0  0  0  0  0  4           0  0  0
  1 10  1  0     0  0
  2 29  2  0     0  0
  3 30  2  0     0  0
  4 31  2  0     0  0
  5 30  1  0     0  0
  5 32  1  0     0  0
  6 29  1  0     0  0
  7 11  1  0     0  0
  7 12  1  0     0  0
  7 33  1  0     0  0
  8 10  1  0     0  0
  8 11  2  0     0  0
  9 13  1  0     0  0
  9 31  1  0     0  0
 10 12  2  0     0  0
 11 34  1  0     0  0
 12 35  1  0     0  0
 13 19  2  0     0  0
 13 20  1  0     0  0
 14 15  1  0     0  0
 14 16  2  0     0  0
 14 21  1  0     0  0
 15 22  2  0     0  0
 15 23  1  0     0  0
 16 17  1  0     0  0
 16 29  1  0     0  0
 17 24  2  0     0  0
 17 31  1  0     0  0
 18 25  2  0     0  0
 18 26  1  0     0  0
 18 33  1  0     0  0
 19 25  1  0     0  0
 20 26  2  0     0  0
 21 27  2  0     0  0
 22 24  1  0     0  0
 23 28  2  0     0  0
 27 28  1  0     0  0
 30 35  1  0     0  0
 34 36  1  0     0  0
 36 37  1  0     0  0
 37 38  1  0     0  0
M  END
> <standard_type>
pIC50

> <# Confs.>
25

> <canonical_smiles>
CCCCC1=NC(Cl)=C(CC(OC)=O)N1CC2=CC=C(NC(C3=CC=C(C=CC=C4)C4=C3C(O)=O)=O)C=C2

> <standard_relation>
=

> <Publication_ID>
nan

> <predicted_activity_value>
5.522878745280337

> <actual_activity_value>
5.236572006437063

> <Compound>
19

> <standard_units>
nM

> hash
9828163350660041123

$$$$
19_
XXILIB    08252103513D 0   0.00000     0.00000

 38 41  0     1  0            999 V2000
    5.0019   -1.4987    0.0650 Cl  0  0  0  0  0  1           0  0  0
    0.2785    0.1430    8.6023 O   0  0  0  0  0  2           0  0  0
    1.3331   -2.3760   -2.3456 O   0  0  0  0  0  2           0  0  0
   -2.1965   -2.2271    5.7747 O   0  0  0  0  0  2           0  0  0
    1.8185   -4.3938   -1.3440 O   0  0  0  0  0  2           0  0  0
   -0.1159   -1.9756    7.8972 O   0  0  0  0  0  2           0  0  0
    1.4522   -0.0000    0.0000 N   0  0  0  0  0  3           0  0  0
    3.5396    0.7595    0.0143 N   0  0  0  0  0  3           0  0  0
   -2.0170    0.0436    5.3535 N   0  0  0  0  0  3           0  0  0
    3.5478   -0.6103    0.0330 C   0  0  0  0  0  4           0  0  0
    2.2701    1.1133    0.0000 C   0  0  0  0  0  4           0  0  0
    2.2624   -1.1179    0.0275 C   0  0  0  0  0  4           0  0  0
   -1.5247   -0.0054    4.0352 C   0  0  0  0  0  4           0  0  0
   -2.4594   -0.3520    9.8829 C   0  0  0  0  0  4           0  0  0
   -3.8628   -0.2204   10.0415 C   0  0  0  0  0  4           0  0  0
   -1.9584   -0.6354    8.5880 C   0  0  0  0  0  4           0  0  0
   -2.8247   -0.7680    7.4941 C   0  0  0  0  0  4           0  0  0
   -0.5411   -0.0000    1.3972 C   0  0  0  0  0  4           0  0  0
   -1.2877   -1.2124    3.3696 C   0  0  0  0  0  4           0  0  0
   -1.2661    1.2030    3.3807 C   0  0  0  0  0  4           0  0  0
   -1.6443   -0.1958   11.0281 C   0  0  0  0  0  4           0  0  0
   -4.7116   -0.3690    8.9310 C   0  0  0  0  0  4           0  0  0
   -4.3987    0.0580   11.3097 C   0  0  0  0  0  4           0  0  0
   -4.2002   -0.6413    7.6635 C   0  0  0  0  0  4           0  0  0
   -0.7980   -1.2070    2.0606 C   0  0  0  0  0  4           0  0  0
   -0.7744    1.2047    2.0728 C   0  0  0  0  0  4           0  0  0
   -2.1949    0.0823   12.2802 C   0  0  0  0  0  4           0  0  0
   -3.5709    0.2088   12.4206 C   0  0  0  0  0  4           0  0  0
   -0.5035   -0.7676    8.3691 C   0  0  0  0  0  4           0  0  0
    1.6078   -3.0444   -1.3579 C   0  0  0  0  0  4           0  0  0
   -2.3183   -1.0571    6.1309 C   0  0  0  0  0  4           0  0  0
    1.6992   -5.0473   -2.6114 C   0  0  0  0  0  4           0  0  0
    0.0000    0.0000    0.0000 C   0  0  0  0  0  4           0  0  0
    1.7876    2.5193   -0.0145 C   0  0  0  0  0  4           0  0  0
    1.7697   -2.5177    0.0456 C   0  0  0  0  0  4           0  0  0
    2.5528    3.3849   -1.0114 C   0  0  0  0  0  4           0  0  0
    2.4557    2.9063   -2.4604 C   0  0  0  0  0  4           0  0  0
    3.2278    3.7881   -3.4304 C   0  0  0  0  0  4           0  0  0
  1 10  1  0     0  0
  2 29  2  0     0  0
  3 30  2  0     0  0
  4 31  2  0     0  0
  5 30  1  0     0  0
  5 32  1  0     0  0
  6 29  1  0     0  0
  7 11  1  0     0  0
  7 12  1  0     0  0
  7 33  1  0     0  0
  8 10  1  0     0  0
  8 11  2  0     0  0
  9 13  1  0     0  0
  9 31  1  0     0  0
 10 12  2  0     0  0
 11 34  1  0     0  0
 12 35  1  0     0  0
 13 19  2  0     0  0
 13 20  1  0     0  0
 14 15  1  0     0  0
 14 16  2  0     0  0
 14 21  1  0     0  0
 15 22  2  0     0  0
 15 23  1  0     0  0
 16 17  1  0     0  0
 16 29  1  0     0  0
 17 24  2  0     0  0
 17 31  1  0     0  0
 18 25  2  0     0  0
 18 26  1  0     0  0
 18 33  1  0     0  0
 19 25  1  0     0  0
 20 26  2  0     0  0
 21 27  2  0     0  0
 22 24  1  0     0  0
 23 28  2  0     0  0
 27 28  1  0     0  0
 30 35  1  0     0  0
 34 36  1  0     0  0
 36 37  1  0     0  0
 37 38  1  0     0  0
M  END
> <standard_type>
pIC50

> <# Confs.>
25

> <canonical_smiles>
CCCCC1=NC(Cl)=C(CC(OC)=O)N1CC2=CC=C(NC(C3=CC=C(C=CC=C4)C4=C3C(O)=O)=O)C=C2

> <standard_relation>
=

> <Publication_ID>
nan

> <predicted_activity_value>
5.522878745280337

> <actual_activity_value>
5.236572006437063

> <Compound>
19

> <standard_units>
nM

> hash
9828163350660041123

$$$$
13_
XXILIB    08252103513D 0   0.00000     0.00000

 39 41  0     1  0            999 V2000
    5.0031   -1.4965   -0.0707 Cl  0  0  0  0  0  1           0  0  0
   -3.9250   -3.6566    6.7496 S   0  0  1  0  0  6           0  0  0
   -4.0167   -4.0297    9.3140 F   0  0  0  0  0  1           0  0  0
   -5.7743   -4.7251    8.2202 F   0  0  0  0  0  1           0  0  0
   -3.9079   -5.8503    8.1175 F   0  0  0  0  0  1           0  0  0
   -4.4114   -4.3493    5.5717 O   0  0  0  0  0  2           0  0  0
   -2.5198   -3.3368    6.9061 O   0  0  0  0  0  2           0  0  0
    1.2678   -2.2804   -2.3696 O   0  0  0  0  0  2           0  0  0
   -4.3086   -0.0590    4.9586 O   0  0  0  0  0  2           0  0  0
    1.8112   -4.3490   -1.5040 O   0  0  0  0  0  2           0  0  0
    1.4518    0.0000   -0.0000 N   0  0  0  0  0  3           0  0  0
    3.5392    0.7614   -0.0216 N   0  0  0  0  0  3           0  0  0
   -4.8594   -2.2461    7.0220 N   0  0  0  0  0  3           0  0  0
   -2.0254   -0.0786    5.3497 N   0  0  0  0  0  3           0  0  0
    3.5484   -0.6083   -0.0369 C   0  0  0  0  0  4           0  0  0
    2.2693    1.1141    0.0000 C   0  0  0  0  0  4           0  0  0
    2.2632   -1.1180   -0.0244 C   0  0  0  0  0  4           0  0  0
   -4.3278   -1.1571    7.7973 C   0  0  0  0  0  4           0  0  0
   -1.5639   -0.0522    4.0198 C   0  0  0  0  0  4           0  0  0
   -3.6057   -0.1101    7.1916 C   0  0  0  0  0  4           0  0  0
   -0.5425   -0.0000    1.3969 C   0  0  0  0  0  4           0  0  0
   -4.5872   -1.1034    9.1756 C   0  0  0  0  0  4           0  0  0
   -2.4345   -0.0243    2.9256 C   0  0  0  0  0  4           0  0  0
   -0.1828   -0.0560    3.7996 C   0  0  0  0  0  4           0  0  0
   -3.1221    0.9447    7.9826 C   0  0  0  0  0  4           0  0  0
   -1.9251    0.0000    1.6242 C   0  0  0  0  0  4           0  0  0
    0.3231   -0.0319    2.4977 C   0  0  0  0  0  4           0  0  0
   -4.1031   -0.0495    9.9503 C   0  0  0  0  0  4           0  0  0
   -3.3672    0.9697    9.3554 C   0  0  0  0  0  4           0  0  0
   -4.4265   -4.5988    8.1546 C   0  0  1  0  0  4           0  0  0
    1.5743   -3.0089   -1.4337 C   0  0  0  0  0  4           0  0  0
   -3.3525   -0.0803    5.7309 C   0  0  0  0  0  4           0  0  0
    1.6817   -4.9282   -2.8064 C   0  0  0  0  0  4           0  0  0
    0.0000    0.0000    0.0000 C   0  0  0  0  0  4           0  0  0
    1.7861    2.5194    0.0249 C   0  0  0  0  0  4           0  0  0
    1.7753   -2.5197   -0.0263 C   0  0  0  0  0  4           0  0  0
    1.5741    3.0852   -1.3760 C   0  0  0  0  0  4           0  0  0
    1.0763    4.5308   -1.4050 C   0  0  0  0  0  4           0  0  0
    0.8881    5.0269   -2.8294 C   0  0  0  0  0  4           0  0  0
  1 15  1  0     0  0
  2  6  2  0     0  0
  2  7  2  0     0  0
  2 13  1  0     0  0
  2 30  1  0     0  0
  3 30  1  0     0  0
  4 30  1  0     0  0
  5 30  1  0     0  0
  8 31  2  0     0  0
  9 32  2  0     0  0
 10 31  1  0     0  0
 10 33  1  0     0  0
 11 16  1  0     0  0
 11 17  1  0     0  0
 11 34  1  0     0  0
 12 15  1  0     0  0
 12 16  2  0     0  0
 13 18  1  0     0  0
 14 19  1  0     0  0
 14 32  1  0     0  0
 15 17  2  0     0  0
 16 35  1  0     0  0
 17 36  1  0     0  0
 18 20  1  0     0  0
 18 22  2  0     0  0
 19 23  2  0     0  0
 19 24  1  0     0  0
 20 25  2  0     0  0
 20 32  1  0     0  0
 21 26  2  0     0  0
 21 27  1  0     0  0
 21 34  1  0     0  0
 22 28  1  0     0  0
 23 26  1  0     0  0
 24 27  2  0     0  0
 25 29  1  0     0  0
 28 29  2  0     0  0
 31 36  1  0     0  0
 35 37  1  0     0  0
 37 38  1  0     0  0
 38 39  1  0     0  0
M  END
> <standard_type>
pIC50

> <# Confs.>
25

> <canonical_smiles>
ClC(N=C1CCCC)=C(CC(OC)=O)N1CC2=CC=C(NC(C3=CC=CC=C3NS(=O)(C(F)(F)F)=O)=O)C=C2

> <standard_relation>
=

> <Publication_ID>
nan

> <predicted_activity_value>
5.337242168318426

> <actual_activity_value>
6.301029995663981

> <Compound>
13

> <standard_units>
nM

> hash
2012092047828091155

$$$$
13_
XXILIB    08252103513D 0   0.00000     0.00000

 39 41  0     1  0            999 V2000
    5.0031    1.4965    0.0707 Cl  0  0  0  0  0  1           0  0  0
   -3.9250   -3.6566    6.7496 S   0  0  1  0  0  6           0  0  0
   -4.0167   -4.0297    9.3140 F   0  0  0  0  0  1           0  0  0
   -5.7743   -4.7251    8.2202 F   0  0  0  0  0  1           0  0  0
   -3.9079   -5.8503    8.1175 F   0  0  0  0  0  1           0  0  0
   -4.4114   -4.3493    5.5717 O   0  0  0  0  0  2           0  0  0
   -2.5198   -3.3368    6.9061 O   0  0  0  0  0  2           0  0  0
    1.3577    2.3181   -2.3382 O   0  0  0  0  0  2           0  0  0
   -4.3086   -0.0590    4.9586 O   0  0  0  0  0  2           0  0  0
    1.8079    4.3819   -1.4098 O   0  0  0  0  0  2           0  0  0
    1.4518    0.0000    0.0000 N   0  0  0  0  0  3           0  0  0
    3.5392   -0.7614    0.0216 N   0  0  0  0  0  3           0  0  0
   -4.8594   -2.2461    7.0220 N   0  0  0  0  0  3           0  0  0
   -2.0254   -0.0786    5.3497 N   0  0  0  0  0  3           0  0  0
    3.5484    0.6083    0.0369 C   0  0  0  0  0  4           0  0  0
    2.2693   -1.1141    0.0000 C   0  0  0  0  0  4           0  0  0
    2.2632    1.1180    0.0244 C   0  0  0  0  0  4           0  0  0
   -4.3278   -1.1571    7.7973 C   0  0  0  0  0  4           0  0  0
   -1.5639   -0.0522    4.0198 C   0  0  0  0  0  4           0  0  0
   -3.6057   -0.1101    7.1916 C   0  0  0  0  0  4           0  0  0
   -0.5425   -0.0000    1.3969 C   0  0  0  0  0  4           0  0  0
   -4.5872   -1.1034    9.1756 C   0  0  0  0  0  4           0  0  0
   -2.4345   -0.0243    2.9256 C   0  0  0  0  0  4           0  0  0
   -0.1828   -0.0560    3.7996 C   0  0  0  0  0  4           0  0  0
   -3.1221    0.9447    7.9826 C   0  0  0  0  0  4           0  0  0
   -1.9251    0.0000    1.6242 C   0  0  0  0  0  4           0  0  0
    0.3231   -0.0319    2.4977 C   0  0  0  0  0  4           0  0  0
   -4.1031   -0.0495    9.9503 C   0  0  0  0  0  4           0  0  0
   -3.3672    0.9697    9.3554 C   0  0  0  0  0  4           0  0  0
   -4.4265   -4.5988    8.1546 C   0  0  1  0  0  4           0  0  0
    1.6280    3.0314   -1.3797 C   0  0  0  0  0  4           0  0  0
   -3.3525   -0.0803    5.7309 C   0  0  0  0  0  4           0  0  0
    1.6604    4.9926   -2.6958 C   0  0  0  0  0  4           0  0  0
    0.0000    0.0000    0.0000 C   0  0  0  0  0  4           0  0  0
    1.7861   -2.5194   -0.0249 C   0  0  0  0  0  4           0  0  0
    1.7753    2.5197    0.0263 C   0  0  0  0  0  4           0  0  0
    1.6206   -3.0511   -1.4453 C   0  0  0  0  0  4           0  0  0
    1.1246   -4.4954   -1.5256 C   0  0  0  0  0  4           0  0  0
    0.9836   -4.9568   -2.9670 C   0  0  0  0  0  4           0  0  0
  1 15  1  0     0  0
  2  6  2  0     0  0
  2  7  2  0     0  0
  2 13  1  0     0  0
  2 30  1  0     0  0
  3 30  1  0     0  0
  4 30  1  0     0  0
  5 30  1  0     0  0
  8 31  2  0     0  0
  9 32  2  0     0  0
 10 31  1  0     0  0
 10 33  1  0     0  0
 11 16  1  0     0  0
 11 17  1  0     0  0
 11 34  1  0     0  0
 12 15  1  0     0  0
 12 16  2  0     0  0
 13 18  1  0     0  0
 14 19  1  0     0  0
 14 32  1  0     0  0
 15 17  2  0     0  0
 16 35  1  0     0  0
 17 36  1  0     0  0
 18 20  1  0     0  0
 18 22  2  0     0  0
 19 23  2  0     0  0
 19 24  1  0     0  0
 20 25  2  0     0  0
 20 32  1  0     0  0
 21 26  2  0     0  0
 21 27  1  0     0  0
 21 34  1  0     0  0
 22 28  1  0     0  0
 23 26  1  0     0  0
 24 27  2  0     0  0
 25 29  1  0     0  0
 28 29  2  0     0  0
 31 36  1  0     0  0
 35 37  1  0     0  0
 37 38  1  0     0  0
 38 39  1  0     0  0
M  END
> <standard_type>
pIC50

> <# Confs.>
25

> <canonical_smiles>
ClC(N=C1CCCC)=C(CC(OC)=O)N1CC2=CC=C(NC(C3=CC=CC=C3NS(=O)(C(F)(F)F)=O)=O)C=C2

> <standard_relation>
=

> <Publication_ID>
nan

> <predicted_activity_value>
5.337242168318426

> <actual_activity_value>
6.301029995663981

> <Compound>
13

> <standard_units>
nM

> hash
2012092047828091155

$$$$
13_
XXILIB    08252103513D 0   0.00000     0.00000

 39 41  0     1  0            999 V2000
    5.0031   -1.4965   -0.0707 Cl  0  0  0  0  0  1           0  0  0
   -3.9250   -3.6566    6.7496 S   0  0  1  0  0  6           0  0  0
   -4.0167   -4.0297    9.3140 F   0  0  0  0  0  1           0  0  0
   -5.7743   -4.7251    8.2202 F   0  0  0  0  0  1           0  0  0
   -3.9079   -5.8503    8.1175 F   0  0  0  0  0  1           0  0  0
   -4.4114   -4.3493    5.5717 O   0  0  0  0  0  2           0  0  0
   -2.5198   -3.3368    6.9061 O   0  0  0  0  0  2           0  0  0
    1.2678   -2.2804   -2.3696 O   0  0  0  0  0  2           0  0  0
   -4.3086   -0.0590    4.9586 O   0  0  0  0  0  2           0  0  0
    1.8112   -4.3490   -1.5040 O   0  0  0  0  0  2           0  0  0
    1.4518    0.0000   -0.0000 N   0  0  0  0  0  3           0  0  0
    3.5392    0.7614   -0.0216 N   0  0  0  0  0  3           0  0  0
   -4.8594   -2.2461    7.0220 N   0  0  0  0  0  3           0  0  0
   -2.0254   -0.0786    5.3497 N   0  0  0  0  0  3           0  0  0
    3.5484   -0.6083   -0.0369 C   0  0  0  0  0  4           0  0  0
    2.2693    1.1141    0.0000 C   0  0  0  0  0  4           0  0  0
    2.2632   -1.1180   -0.0244 C   0  0  0  0  0  4           0  0  0
   -4.3278   -1.1571    7.7973 C   0  0  0  0  0  4           0  0  0
   -1.5639   -0.0522    4.0198 C   0  0  0  0  0  4           0  0  0
   -3.6057   -0.1101    7.1916 C   0  0  0  0  0  4           0  0  0
   -0.5425   -0.0000    1.3969 C   0  0  0  0  0  4           0  0  0
   -4.5872   -1.1034    9.1756 C   0  0  0  0  0  4           0  0  0
   -2.4345   -0.0243    2.9256 C   0  0  0  0  0  4           0  0  0
   -0.1828   -0.0560    3.7996 C   0  0  0  0  0  4           0  0  0
   -3.1221    0.9447    7.9826 C   0  0  0  0  0  4           0  0  0
   -1.9251    0.0000    1.6242 C   0  0  0  0  0  4           0  0  0
    0.3231   -0.0319    2.4977 C   0  0  0  0  0  4           0  0  0
   -4.1031   -0.0495    9.9503 C   0  0  0  0  0  4           0  0  0
   -3.3672    0.9697    9.3554 C   0  0  0  0  0  4           0  0  0
   -4.4265   -4.5988    8.1546 C   0  0  1  0  0  4           0  0  0
    1.5743   -3.0089   -1.4337 C   0  0  0  0  0  4           0  0  0
   -3.3525   -0.0803    5.7309 C   0  0  0  0  0  4           0  0  0
    1.6817   -4.9282   -2.8064 C   0  0  0  0  0  4           0  0  0
    0.0000    0.0000    0.0000 C   0  0  0  0  0  4           0  0  0
    1.7861    2.5194    0.0249 C   0  0  0  0  0  4           0  0  0
    1.7753   -2.5197   -0.0263 C   0  0  0  0  0  4           0  0  0
    2.5571    3.3807    1.0206 C   0  0  0  0  0  4           0  0  0
    2.4738    2.8995    2.4697 C   0  0  0  0  0  4           0  0  0
    3.2632    3.8027    3.4030 C   0  0  0  0  0  4           0  0  0
  1 15  1  0     0  0
  2  6  2  0     0  0
  2  7  2  0     0  0
  2 13  1  0     0  0
  2 30  1  0     0  0
  3 30  1  0     0  0
  4 30  1  0     0  0
  5 30  1  0     0  0
  8 31  2  0     0  0
  9 32  2  0     0  0
 10 31  1  0     0  0
 10 33  1  0     0  0
 11 16  1  0     0  0
 11 17  1  0     0  0
 11 34  1  0     0  0
 12 15  1  0     0  0
 12 16  2  0     0  0
 13 18  1  0     0  0
 14 19  1  0     0  0
 14 32  1  0     0  0
 15 17  2  0     0  0
 16 35  1  0     0  0
 17 36  1  0     0  0
 18 20  1  0     0  0
 18 22  2  0     0  0
 19 23  2  0     0  0
 19 24  1  0     0  0
 20 25  2  0     0  0
 20 32  1  0     0  0
 21 26  2  0     0  0
 21 27  1  0     0  0
 21 34  1  0     0  0
 22 28  1  0     0  0
 23 26  1  0     0  0
 24 27  2  0     0  0
 25 29  1  0     0  0
 28 29  2  0     0  0
 31 36  1  0     0  0
 35 37  1  0     0  0
 37 38  1  0     0  0
 38 39  1  0     0  0
M  END
> <standard_type>
pIC50

> <# Confs.>
25

> <canonical_smiles>
ClC(N=C1CCCC)=C(CC(OC)=O)N1CC2=CC=C(NC(C3=CC=CC=C3NS(=O)(C(F)(F)F)=O)=O)C=C2

> <standard_relation>
=

> <Publication_ID>
nan

> <predicted_activity_value>
5.337242168318426

> <actual_activity_value>
6.301029995663981

> <Compound>
13

> <standard_units>
nM

> hash
2012092047828091155

$$$$
13_
XXILIB    08252103513D 0   0.00000     0.00000

 39 41  0     1  0            999 V2000
    5.0031   -1.4965   -0.0707 Cl  0  0  0  0  0  1           0  0  0
   -3.9250   -3.6566    6.7496 S   0  0  1  0  0  6           0  0  0
   -4.0167   -4.0297    9.3140 F   0  0  0  0  0  1           0  0  0
   -5.7743   -4.7251    8.2202 F   0  0  0  0  0  1           0  0  0
   -3.9079   -5.8503    8.1175 F   0  0  0  0  0  1           0  0  0
   -4.4114   -4.3493    5.5717 O   0  0  0  0  0  2           0  0  0
   -2.5198   -3.3368    6.9061 O   0  0  0  0  0  2           0  0  0
    2.3197   -2.6529    2.3171 O   0  0  0  0  0  2           0  0  0
   -4.3086   -0.0590    4.9586 O   0  0  0  0  0  2           0  0  0
    0.6100   -3.9349    1.4470 O   0  0  0  0  0  2           0  0  0
    1.4518    0.0000    0.0000 N   0  0  0  0  0  3           0  0  0
    3.5392    0.7614   -0.0216 N   0  0  0  0  0  3           0  0  0
   -4.8594   -2.2461    7.0220 N   0  0  0  0  0  3           0  0  0
   -2.0254   -0.0786    5.3497 N   0  0  0  0  0  3           0  0  0
    3.5484   -0.6083   -0.0369 C   0  0  0  0  0  4           0  0  0
    2.2693    1.1141    0.0000 C   0  0  0  0  0  4           0  0  0
    2.2632   -1.1180   -0.0244 C   0  0  0  0  0  4           0  0  0
   -4.3278   -1.1571    7.7973 C   0  0  0  0  0  4           0  0  0
   -1.5639   -0.0522    4.0198 C   0  0  0  0  0  4           0  0  0
   -3.6057   -0.1101    7.1916 C   0  0  0  0  0  4           0  0  0
   -0.5425   -0.0000    1.3969 C   0  0  0  0  0  4           0  0  0
   -4.5872   -1.1034    9.1756 C   0  0  0  0  0  4           0  0  0
   -2.4345   -0.0243    2.9256 C   0  0  0  0  0  4           0  0  0
   -0.1828   -0.0560    3.7996 C   0  0  0  0  0  4           0  0  0
   -3.1221    0.9447    7.9826 C   0  0  0  0  0  4           0  0  0
   -1.9251    0.0000    1.6242 C   0  0  0  0  0  4           0  0  0
    0.3231   -0.0319    2.4977 C   0  0  0  0  0  4           0  0  0
   -4.1031   -0.0495    9.9503 C   0  0  0  0  0  4           0  0  0
   -3.3672    0.9697    9.3554 C   0  0  0  0  0  4           0  0  0
   -4.4265   -4.5988    8.1546 C   0  0  1  0  0  4           0  0  0
    1.6280   -3.0314    1.3797 C   0  0  0  0  0  4           0  0  0
   -3.3525   -0.0803    5.7309 C   0  0  0  0  0  4           0  0  0
    0.3509   -4.4724    2.7479 C   0  0  0  0  0  4           0  0  0
    0.0000    0.0000    0.0000 C   0  0  0  0  0  4           0  0  0
    1.7861    2.5194    0.0249 C   0  0  0  0  0  4           0  0  0
    1.7753   -2.5197   -0.0263 C   0  0  0  0  0  4           0  0  0
    1.5741    3.0852   -1.3760 C   0  0  0  0  0  4           0  0  0
    1.0763    4.5308   -1.4050 C   0  0  0  0  0  4           0  0  0
    0.8881    5.0269   -2.8294 C   0  0  0  0  0  4           0  0  0
  1 15  1  0     0  0
  2  6  2  0     0  0
  2  7  2  0     0  0
  2 13  1  0     0  0
  2 30  1  0     0  0
  3 30  1  0     0  0
  4 30  1  0     0  0
  5 30  1  0     0  0
  8 31  2  0     0  0
  9 32  2  0     0  0
 10 31  1  0     0  0
 10 33  1  0     0  0
 11 16  1  0     0  0
 11 17  1  0     0  0
 11 34  1  0     0  0
 12 15  1  0     0  0
 12 16  2  0     0  0
 13 18  1  0     0  0
 14 19  1  0     0  0
 14 32  1  0     0  0
 15 17  2  0     0  0
 16 35  1  0     0  0
 17 36  1  0     0  0
 18 20  1  0     0  0
 18 22  2  0     0  0
 19 23  2  0     0  0
 19 24  1  0     0  0
 20 25  2  0     0  0
 20 32  1  0     0  0
 21 26  2  0     0  0
 21 27  1  0     0  0
 21 34  1  0     0  0
 22 28  1  0     0  0
 23 26  1  0     0  0
 24 27  2  0     0  0
 25 29  1  0     0  0
 28 29  2  0     0  0
 31 36  1  0     0  0
 35 37  1  0     0  0
 37 38  1  0     0  0
 38 39  1  0     0  0
M  END
> <standard_type>
pIC50

> <# Confs.>
25

> <canonical_smiles>
ClC(N=C1CCCC)=C(CC(OC)=O)N1CC2=CC=C(NC(C3=CC=CC=C3NS(=O)(C(F)(F)F)=O)=O)C=C2

> <standard_relation>
=

> <Publication_ID>
nan

> <predicted_activity_value>
5.337242168318426

> <actual_activity_value>
6.301029995663981

> <Compound>
13

> <standard_units>
nM

> hash
2012092047828091155

$$$$
13_
XXILIB    08252103513D 0   0.00000     0.00000

 39 41  0     1  0            999 V2000
    5.0031   -1.4965   -0.0707 Cl  0  0  0  0  0  1           0  0  0
   -3.9250   -3.6566    6.7496 S   0  0  1  0  0  6           0  0  0
   -4.0167   -4.0297    9.3140 F   0  0  0  0  0  1           0  0  0
   -5.7743   -4.7251    8.2202 F   0  0  0  0  0  1           0  0  0
   -3.9079   -5.8503    8.1175 F   0  0  0  0  0  1           0  0  0
   -4.4114   -4.3493    5.5717 O   0  0  0  0  0  2           0  0  0
   -2.5198   -3.3368    6.9061 O   0  0  0  0  0  2           0  0  0
    1.7899   -2.3268   -2.4281 O   0  0  0  0  0  2           0  0  0
   -4.3086   -0.0590    4.9586 O   0  0  0  0  0  2           0  0  0
    1.1553   -4.3056   -1.4254 O   0  0  0  0  0  2           0  0  0
    1.4518    0.0000   -0.0000 N   0  0  0  0  0  3           0  0  0
    3.5392    0.7614   -0.0216 N   0  0  0  0  0  3           0  0  0
   -4.8594   -2.2461    7.0220 N   0  0  0  0  0  3           0  0  0
   -2.0254   -0.0786    5.3497 N   0  0  0  0  0  3           0  0  0
    3.5484   -0.6083   -0.0369 C   0  0  0  0  0  4           0  0  0
    2.2693    1.1141    0.0000 C   0  0  0  0  0  4           0  0  0
    2.2632   -1.1180   -0.0244 C   0  0  0  0  0  4           0  0  0
   -4.3278   -1.1571    7.7973 C   0  0  0  0  0  4           0  0  0
   -1.5639   -0.0522    4.0198 C   0  0  0  0  0  4           0  0  0
   -3.6057   -0.1101    7.1916 C   0  0  0  0  0  4           0  0  0
   -0.5425   -0.0000    1.3969 C   0  0  0  0  0  4           0  0  0
   -4.5872   -1.1034    9.1756 C   0  0  0  0  0  4           0  0  0
   -2.4345   -0.0243    2.9256 C   0  0  0  0  0  4           0  0  0
   -0.1828   -0.0560    3.7996 C   0  0  0  0  0  4           0  0  0
   -3.1221    0.9447    7.9826 C   0  0  0  0  0  4           0  0  0
   -1.9251    0.0000    1.6242 C   0  0  0  0  0  4           0  0  0
    0.3231   -0.0319    2.4977 C   0  0  0  0  0  4           0  0  0
   -4.1031   -0.0495    9.9503 C   0  0  0  0  0  4           0  0  0
   -3.3672    0.9697    9.3554 C   0  0  0  0  0  4           0  0  0
   -4.4265   -4.5988    8.1546 C   0  0  1  0  0  4           0  0  0
    1.5743   -3.0089   -1.4337 C   0  0  0  0  0  4           0  0  0
   -3.3525   -0.0803    5.7309 C   0  0  0  0  0  4           0  0  0
    0.9584   -4.8957   -2.7144 C   0  0  0  0  0  4           0  0  0
    0.0000    0.0000    0.0000 C   0  0  0  0  0  4           0  0  0
    1.7861    2.5194    0.0249 C   0  0  0  0  0  4           0  0  0
    1.7753   -2.5197   -0.0263 C   0  0  0  0  0  4           0  0  0
    1.5741    3.0852   -1.3760 C   0  0  0  0  0  4           0  0  0
    2.8317    3.1062   -2.2459 C   0  0  0  0  0  4           0  0  0
    2.5465    3.6810   -3.6238 C   0  0  0  0  0  4           0  0  0
  1 15  1  0     0  0
  2  6  2  0     0  0
  2  7  2  0     0  0
  2 13  1  0     0  0
  2 30  1  0     0  0
  3 30  1  0     0  0
  4 30  1  0     0  0
  5 30  1  0     0  0
  8 31  2  0     0  0
  9 32  2  0     0  0
 10 31  1  0     0  0
 10 33  1  0     0  0
 11 16  1  0     0  0
 11 17  1  0     0  0
 11 34  1  0     0  0
 12 15  1  0     0  0
 12 16  2  0     0  0
 13 18  1  0     0  0
 14 19  1  0     0  0
 14 32  1  0     0  0
 15 17  2  0     0  0
 16 35  1  0     0  0
 17 36  1  0     0  0
 18 20  1  0     0  0
 18 22  2  0     0  0
 19 23  2  0     0  0
 19 24  1  0     0  0
 20 25  2  0     0  0
 20 32  1  0     0  0
 21 26  2  0     0  0
 21 27  1  0     0  0
 21 34  1  0     0  0
 22 28  1  0     0  0
 23 26  1  0     0  0
 24 27  2  0     0  0
 25 29  1  0     0  0
 28 29  2  0     0  0
 31 36  1  0     0  0
 35 37  1  0     0  0
 37 38  1  0     0  0
 38 39  1  0     0  0
M  END
> <standard_type>
pIC50

> <# Confs.>
25

> <canonical_smiles>
ClC(N=C1CCCC)=C(CC(OC)=O)N1CC2=CC=C(NC(C3=CC=CC=C3NS(=O)(C(F)(F)F)=O)=O)C=C2

> <standard_relation>
=

> <Publication_ID>
nan

> <predicted_activity_value>
5.337242168318426

> <actual_activity_value>
6.301029995663981

> <Compound>
13

> <standard_units>
nM

> hash
2012092047828091155

$$$$
13_
XXILIB    08252103513D 0   0.00000     0.00000

 39 41  0     1  0            999 V2000
    5.0031    1.4965    0.0707 Cl  0  0  0  0  0  1           0  0  0
   -3.9250   -3.6566    6.7496 S   0  0  1  0  0  6           0  0  0
   -4.0167   -4.0297    9.3140 F   0  0  0  0  0  1           0  0  0
   -5.7743   -4.7251    8.2202 F   0  0  0  0  0  1           0  0  0
   -3.9079   -5.8503    8.1175 F   0  0  0  0  0  1           0  0  0
   -4.4114   -4.3493    5.5717 O   0  0  0  0  0  2           0  0  0
   -2.5198   -3.3368    6.9061 O   0  0  0  0  0  2           0  0  0
    1.3577    2.3181   -2.3382 O   0  0  0  0  0  2           0  0  0
   -4.3086   -0.0590    4.9586 O   0  0  0  0  0  2           0  0  0
    1.8079    4.3819   -1.4098 O   0  0  0  0  0  2           0  0  0
    1.4518    0.0000    0.0000 N   0  0  0  0  0  3           0  0  0
    3.5392   -0.7614    0.0216 N   0  0  0  0  0  3           0  0  0
   -4.8594   -2.2461    7.0220 N   0  0  0  0  0  3           0  0  0
   -2.0254   -0.0786    5.3497 N   0  0  0  0  0  3           0  0  0
    3.5484    0.6083    0.0369 C   0  0  0  0  0  4           0  0  0
    2.2693   -1.1141    0.0000 C   0  0  0  0  0  4           0  0  0
    2.2632    1.1180    0.0244 C   0  0  0  0  0  4           0  0  0
   -4.3278   -1.1571    7.7973 C   0  0  0  0  0  4           0  0  0
   -1.5639   -0.0522    4.0198 C   0  0  0  0  0  4           0  0  0
   -3.6057   -0.1101    7.1916 C   0  0  0  0  0  4           0  0  0
   -0.5425   -0.0000    1.3969 C   0  0  0  0  0  4           0  0  0
   -4.5872   -1.1034    9.1756 C   0  0  0  0  0  4           0  0  0
   -2.4345   -0.0243    2.9256 C   0  0  0  0  0  4           0  0  0
   -0.1828   -0.0560    3.7996 C   0  0  0  0  0  4           0  0  0
   -3.1221    0.9447    7.9826 C   0  0  0  0  0  4           0  0  0
   -1.9251    0.0000    1.6242 C   0  0  0  0  0  4           0  0  0
    0.3231   -0.0319    2.4977 C   0  0  0  0  0  4           0  0  0
   -4.1031   -0.0495    9.9503 C   0  0  0  0  0  4           0  0  0
   -3.3672    0.9697    9.3554 C   0  0  0  0  0  4           0  0  0
   -4.4265   -4.5988    8.1546 C   0  0  1  0  0  4           0  0  0
    1.6280    3.0314   -1.3797 C   0  0  0  0  0  4           0  0  0
   -3.3525   -0.0803    5.7309 C   0  0  0  0  0  4           0  0  0
    1.6604    4.9926   -2.6958 C   0  0  0  0  0  4           0  0  0
    0.0000    0.0000    0.0000 C   0  0  0  0  0  4           0  0  0
    1.7861   -2.5194   -0.0249 C   0  0  0  0  0  4           0  0  0
    1.7753    2.5197    0.0263 C   0  0  0  0  0  4           0  0  0
    2.5243   -3.4048    0.9744 C   0  0  0  0  0  4           0  0  0
    2.3931   -2.9587    2.4312 C   0  0  0  0  0  4           0  0  0
    3.1517   -3.8846    3.3680 C   0  0  0  0  0  4           0  0  0
  1 15  1  0     0  0
  2  6  2  0     0  0
  2  7  2  0     0  0
  2 13  1  0     0  0
  2 30  1  0     0  0
  3 30  1  0     0  0
  4 30  1  0     0  0
  5 30  1  0     0  0
  8 31  2  0     0  0
  9 32  2  0     0  0
 10 31  1  0     0  0
 10 33  1  0     0  0
 11 16  1  0     0  0
 11 17  1  0     0  0
 11 34  1  0     0  0
 12 15  1  0     0  0
 12 16  2  0     0  0
 13 18  1  0     0  0
 14 19  1  0     0  0
 14 32  1  0     0  0
 15 17  2  0     0  0
 16 35  1  0     0  0
 17 36  1  0     0  0
 18 20  1  0     0  0
 18 22  2  0     0  0
 19 23  2  0     0  0
 19 24  1  0     0  0
 20 25  2  0     0  0
 20 32  1  0     0  0
 21 26  2  0     0  0
 21 27  1  0     0  0
 21 34  1  0     0  0
 22 28  1  0     0  0
 23 26  1  0     0  0
 24 27  2  0     0  0
 25 29  1  0     0  0
 28 29  2  0     0  0
 31 36  1  0     0  0
 35 37  1  0     0  0
 37 38  1  0     0  0
 38 39  1  0     0  0
M  END
> <standard_type>
pIC50

> <# Confs.>
25

> <canonical_smiles>
ClC(N=C1CCCC)=C(CC(OC)=O)N1CC2=CC=C(NC(C3=CC=CC=C3NS(=O)(C(F)(F)F)=O)=O)C=C2

> <standard_relation>
=

> <Publication_ID>
nan

> <predicted_activity_value>
5.337242168318426

> <actual_activity_value>
6.301029995663981

> <Compound>
13

> <standard_units>
nM

> hash
2012092047828091155

$$$$
13_
XXILIB    08252103513D 0   0.00000     0.00000

 39 41  0     1  0            999 V2000
    5.0031    1.4965    0.0707 Cl  0  0  0  0  0  1           0  0  0
   -6.0034   -1.7264    5.9424 S   0  0  1  0  0  6           0  0  0
   -6.5712   -2.5862    8.3219 F   0  0  0  0  0  1           0  0  0
   -8.2317   -1.6394    7.2658 F   0  0  0  0  0  1           0  0  0
   -7.5718   -3.6390    6.6945 F   0  0  0  0  0  1           0  0  0
   -6.7062   -1.5941    4.6804 O   0  0  0  0  0  2           0  0  0
   -4.7606   -2.4665    6.0358 O   0  0  0  0  0  2           0  0  0
    1.3577    2.3181   -2.3382 O   0  0  0  0  0  2           0  0  0
   -3.7411    1.5289    5.1790 O   0  0  0  0  0  2           0  0  0
    1.8079    4.3819   -1.4098 O   0  0  0  0  0  2           0  0  0
    1.4518    0.0000    0.0000 N   0  0  0  0  0  3           0  0  0
    3.5392   -0.7614    0.0216 N   0  0  0  0  0  3           0  0  0
   -5.7972   -0.1828    6.6578 N   0  0  0  0  0  3           0  0  0
   -2.0905   -0.0900    5.3244 N   0  0  0  0  0  3           0  0  0
    3.5484    0.6083    0.0369 C   0  0  0  0  0  4           0  0  0
    2.2693   -1.1141    0.0000 C   0  0  0  0  0  4           0  0  0
    2.2632    1.1180    0.0244 C   0  0  0  0  0  4           0  0  0
   -4.7598    0.0383    7.6295 C   0  0  0  0  0  4           0  0  0
   -1.5976   -0.0351    4.0067 C   0  0  0  0  0  4           0  0  0
   -3.4715    0.4578    7.2438 C   0  0  0  0  0  4           0  0  0
   -0.5425    0.0000    1.3969 C   0  0  0  0  0  4           0  0  0
   -5.0539   -0.1055    8.9943 C   0  0  0  0  0  4           0  0  0
   -2.1202    0.8385    3.0477 C   0  0  0  0  0  4           0  0  0
   -0.5488   -0.8918    3.6575 C   0  0  0  0  0  4           0  0  0
   -2.4938    0.6824    8.2266 C   0  0  0  0  0  4           0  0  0
   -1.5957    0.8531    1.7521 C   0  0  0  0  0  4           0  0  0
   -0.0270   -0.8750    2.3618 C   0  0  0  0  0  4           0  0  0
   -4.0750    0.1223    9.9612 C   0  0  0  0  0  4           0  0  0
   -2.7958    0.5102    9.5773 C   0  0  0  0  0  4           0  0  0
   -7.1372   -2.4217    7.1018 C   0  0  1  0  0  4           0  0  0
    1.6280    3.0314   -1.3797 C   0  0  0  0  0  4           0  0  0
   -3.1187    0.6859    5.8217 C   0  0  0  0  0  4           0  0  0
    1.6604    4.9926   -2.6958 C   0  0  0  0  0  4           0  0  0
    0.0000    0.0000   -0.0000 C   0  0  0  0  0  4           0  0  0
    1.7861   -2.5194   -0.0249 C   0  0  0  0  0  4           0  0  0
    1.7753    2.5197    0.0263 C   0  0  0  0  0  4           0  0  0
    2.5571   -3.3807   -1.0206 C   0  0  0  0  0  4           0  0  0
    2.4738   -2.8995   -2.4697 C   0  0  0  0  0  4           0  0  0
    3.2632   -3.8027   -3.4030 C   0  0  0  0  0  4           0  0  0
  1 15  1  0     0  0
  2  6  2  0     0  0
  2  7  2  0     0  0
  2 13  1  0     0  0
  2 30  1  0     0  0
  3 30  1  0     0  0
  4 30  1  0     0  0
  5 30  1  0     0  0
  8 31  2  0     0  0
  9 32  2  0     0  0
 10 31  1  0     0  0
 10 33  1  0     0  0
 11 16  1  0     0  0
 11 17  1  0     0  0
 11 34  1  0     0  0
 12 15  1  0     0  0
 12 16  2  0     0  0
 13 18  1  0     0  0
 14 19  1  0     0  0
 14 32  1  0     0  0
 15 17  2  0     0  0
 16 35  1  0     0  0
 17 36  1  0     0  0
 18 20  1  0     0  0
 18 22  2  0     0  0
 19 23  2  0     0  0
 19 24  1  0     0  0
 20 25  2  0     0  0
 20 32  1  0     0  0
 21 26  2  0     0  0
 21 27  1  0     0  0
 21 34  1  0     0  0
 22 28  1  0     0  0
 23 26  1  0     0  0
 24 27  2  0     0  0
 25 29  1  0     0  0
 28 29  2  0     0  0
 31 36  1  0     0  0
 35 37  1  0     0  0
 37 38  1  0     0  0
 38 39  1  0     0  0
M  END
> <standard_type>
pIC50

> <# Confs.>
25

> <canonical_smiles>
ClC(N=C1CCCC)=C(CC(OC)=O)N1CC2=CC=C(NC(C3=CC=CC=C3NS(=O)(C(F)(F)F)=O)=O)C=C2

> <standard_relation>
=

> <Publication_ID>
nan

> <predicted_activity_value>
5.337242168318426

> <actual_activity_value>
6.301029995663981

> <Compound>
13

> <standard_units>
nM

> hash
2012092047828091155

$$$$
13_
XXILIB    08252103513D 0   0.00000     0.00000

 39 41  0     1  0            999 V2000
    5.0031   -1.4965   -0.0707 Cl  0  0  0  0  0  1           0  0  0
   -3.9250   -3.6566    6.7496 S   0  0  1  0  0  6           0  0  0
   -4.0167   -4.0297    9.3140 F   0  0  0  0  0  1           0  0  0
   -5.7743   -4.7251    8.2202 F   0  0  0  0  0  1           0  0  0
   -3.9079   -5.8503    8.1175 F   0  0  0  0  0  1           0  0  0
   -4.4114   -4.3493    5.5717 O   0  0  0  0  0  2           0  0  0
   -2.5198   -3.3368    6.9061 O   0  0  0  0  0  2           0  0  0
    2.3197   -2.6529    2.3171 O   0  0  0  0  0  2           0  0  0
   -4.3086   -0.0590    4.9586 O   0  0  0  0  0  2           0  0  0
    0.6100   -3.9349    1.4470 O   0  0  0  0  0  2           0  0  0
    1.4518    0.0000    0.0000 N   0  0  0  0  0  3           0  0  0
    3.5392    0.7614   -0.0216 N   0  0  0  0  0  3           0  0  0
   -4.8594   -2.2461    7.0220 N   0  0  0  0  0  3           0  0  0
   -2.0254   -0.0786    5.3497 N   0  0  0  0  0  3           0  0  0
    3.5484   -0.6083   -0.0369 C   0  0  0  0  0  4           0  0  0
    2.2693    1.1141    0.0000 C   0  0  0  0  0  4           0  0  0
    2.2632   -1.1180   -0.0244 C   0  0  0  0  0  4           0  0  0
   -4.3278   -1.1571    7.7973 C   0  0  0  0  0  4           0  0  0
   -1.5639   -0.0522    4.0198 C   0  0  0  0  0  4           0  0  0
   -3.6057   -0.1101    7.1916 C   0  0  0  0  0  4           0  0  0
   -0.5425   -0.0000    1.3969 C   0  0  0  0  0  4           0  0  0
   -4.5872   -1.1034    9.1756 C   0  0  0  0  0  4           0  0  0
   -2.4345   -0.0243    2.9256 C   0  0  0  0  0  4           0  0  0
   -0.1828   -0.0560    3.7996 C   0  0  0  0  0  4           0  0  0
   -3.1221    0.9447    7.9826 C   0  0  0  0  0  4           0  0  0
   -1.9251    0.0000    1.6242 C   0  0  0  0  0  4           0  0  0
    0.3231   -0.0319    2.4977 C   0  0  0  0  0  4           0  0  0
   -4.1031   -0.0495    9.9503 C   0  0  0  0  0  4           0  0  0
   -3.3672    0.9697    9.3554 C   0  0  0  0  0  4           0  0  0
   -4.4265   -4.5988    8.1546 C   0  0  1  0  0  4           0  0  0
    1.6280   -3.0314    1.3797 C   0  0  0  0  0  4           0  0  0
   -3.3525   -0.0803    5.7309 C   0  0  0  0  0  4           0  0  0
    0.3509   -4.4724    2.7479 C   0  0  0  0  0  4           0  0  0
    0.0000    0.0000    0.0000 C   0  0  0  0  0  4           0  0  0
    1.7861    2.5194    0.0249 C   0  0  0  0  0  4           0  0  0
    1.7753   -2.5197   -0.0263 C   0  0  0  0  0  4           0  0  0
    2.5571    3.3807    1.0206 C   0  0  0  0  0  4           0  0  0
    2.4738    2.8995    2.4697 C   0  0  0  0  0  4           0  0  0
    3.2632    3.8027    3.4030 C   0  0  0  0  0  4           0  0  0
  1 15  1  0     0  0
  2  6  2  0     0  0
  2  7  2  0     0  0
  2 13  1  0     0  0
  2 30  1  0     0  0
  3 30  1  0     0  0
  4 30  1  0     0  0
  5 30  1  0     0  0
  8 31  2  0     0  0
  9 32  2  0     0  0
 10 31  1  0     0  0
 10 33  1  0     0  0
 11 16  1  0     0  0
 11 17  1  0     0  0
 11 34  1  0     0  0
 12 15  1  0     0  0
 12 16  2  0     0  0
 13 18  1  0     0  0
 14 19  1  0     0  0
 14 32  1  0     0  0
 15 17  2  0     0  0
 16 35  1  0     0  0
 17 36  1  0     0  0
 18 20  1  0     0  0
 18 22  2  0     0  0
 19 23  2  0     0  0
 19 24  1  0     0  0
 20 25  2  0     0  0
 20 32  1  0     0  0
 21 26  2  0     0  0
 21 27  1  0     0  0
 21 34  1  0     0  0
 22 28  1  0     0  0
 23 26  1  0     0  0
 24 27  2  0     0  0
 25 29  1  0     0  0
 28 29  2  0     0  0
 31 36  1  0     0  0
 35 37  1  0     0  0
 37 38  1  0     0  0
 38 39  1  0     0  0
M  END
> <standard_type>
pIC50

> <# Confs.>
25

> <canonical_smiles>
ClC(N=C1CCCC)=C(CC(OC)=O)N1CC2=CC=C(NC(C3=CC=CC=C3NS(=O)(C(F)(F)F)=O)=O)C=C2

> <standard_relation>
=

> <Publication_ID>
nan

> <predicted_activity_value>
5.337242168318426

> <actual_activity_value>
6.301029995663981

> <Compound>
13

> <standard_units>
nM

> hash
2012092047828091155

$$$$
13_
XXILIB    08252103513D 0   0.00000     0.00000

 39 41  0     1  0            999 V2000
    5.0031   -1.4965   -0.0707 Cl  0  0  0  0  0  1           0  0  0
   -3.9250   -3.6566    6.7496 S   0  0  1  0  0  6           0  0  0
   -4.0167   -4.0297    9.3140 F   0  0  0  0  0  1           0  0  0
   -5.7743   -4.7251    8.2202 F   0  0  0  0  0  1           0  0  0
   -3.9079   -5.8503    8.1175 F   0  0  0  0  0  1           0  0  0
   -4.4114   -4.3493    5.5717 O   0  0  0  0  0  2           0  0  0
   -2.5198   -3.3368    6.9061 O   0  0  0  0  0  2           0  0  0
    1.2678   -2.2804   -2.3696 O   0  0  0  0  0  2           0  0  0
   -4.3086   -0.0590    4.9586 O   0  0  0  0  0  2           0  0  0
    1.8112   -4.3490   -1.5040 O   0  0  0  0  0  2           0  0  0
    1.4518    0.0000   -0.0000 N   0  0  0  0  0  3           0  0  0
    3.5392    0.7614   -0.0216 N   0  0  0  0  0  3           0  0  0
   -4.8594   -2.2461    7.0220 N   0  0  0  0  0  3           0  0  0
   -2.0254   -0.0786    5.3497 N   0  0  0  0  0  3           0  0  0
    3.5484   -0.6083   -0.0369 C   0  0  0  0  0  4           0  0  0
    2.2693    1.1141    0.0000 C   0  0  0  0  0  4           0  0  0
    2.2632   -1.1180   -0.0244 C   0  0  0  0  0  4           0  0  0
   -4.3278   -1.1571    7.7973 C   0  0  0  0  0  4           0  0  0
   -1.5639   -0.0522    4.0198 C   0  0  0  0  0  4           0  0  0
   -3.6057   -0.1101    7.1916 C   0  0  0  0  0  4           0  0  0
   -0.5425   -0.0000    1.3969 C   0  0  0  0  0  4           0  0  0
   -4.5872   -1.1034    9.1756 C   0  0  0  0  0  4           0  0  0
   -2.4345   -0.0243    2.9256 C   0  0  0  0  0  4           0  0  0
   -0.1828   -0.0560    3.7996 C   0  0  0  0  0  4           0  0  0
   -3.1221    0.9447    7.9826 C   0  0  0  0  0  4           0  0  0
   -1.9251    0.0000    1.6242 C   0  0  0  0  0  4           0  0  0
    0.3231   -0.0319    2.4977 C   0  0  0  0  0  4           0  0  0
   -4.1031   -0.0495    9.9503 C   0  0  0  0  0  4           0  0  0
   -3.3672    0.9697    9.3554 C   0  0  0  0  0  4           0  0  0
   -4.4265   -4.5988    8.1546 C   0  0  1  0  0  4           0  0  0
    1.5743   -3.0089   -1.4337 C   0  0  0  0  0  4           0  0  0
   -3.3525   -0.0803    5.7309 C   0  0  0  0  0  4           0  0  0
    1.6817   -4.9282   -2.8064 C   0  0  0  0  0  4           0  0  0
    0.0000    0.0000    0.0000 C   0  0  0  0  0  4           0  0  0
    1.7861    2.5194    0.0249 C   0  0  0  0  0  4           0  0  0
    1.7753   -2.5197   -0.0263 C   0  0  0  0  0  4           0  0  0
    1.6206    3.0511    1.4453 C   0  0  0  0  0  4           0  0  0
    1.1246    4.4954    1.5256 C   0  0  0  0  0  4           0  0  0
    0.9836    4.9568    2.9670 C   0  0  0  0  0  4           0  0  0
  1 15  1  0     0  0
  2  6  2  0     0  0
  2  7  2  0     0  0
  2 13  1  0     0  0
  2 30  1  0     0  0
  3 30  1  0     0  0
  4 30  1  0     0  0
  5 30  1  0     0  0
  8 31  2  0     0  0
  9 32  2  0     0  0
 10 31  1  0     0  0
 10 33  1  0     0  0
 11 16  1  0     0  0
 11 17  1  0     0  0
 11 34  1  0     0  0
 12 15  1  0     0  0
 12 16  2  0     0  0
 13 18  1  0     0  0
 14 19  1  0     0  0
 14 32  1  0     0  0
 15 17  2  0     0  0
 16 35  1  0     0  0
 17 36  1  0     0  0
 18 20  1  0     0  0
 18 22  2  0     0  0
 19 23  2  0     0  0
 19 24  1  0     0  0
 20 25  2  0     0  0
 20 32  1  0     0  0
 21 26  2  0     0  0
 21 27  1  0     0  0
 21 34  1  0     0  0
 22 28  1  0     0  0
 23 26  1  0     0  0
 24 27  2  0     0  0
 25 29  1  0     0  0
 28 29  2  0     0  0
 31 36  1  0     0  0
 35 37  1  0     0  0
 37 38  1  0     0  0
 38 39  1  0     0  0
M  END
> <standard_type>
pIC50

> <# Confs.>
25

> <canonical_smiles>
ClC(N=C1CCCC)=C(CC(OC)=O)N1CC2=CC=C(NC(C3=CC=CC=C3NS(=O)(C(F)(F)F)=O)=O)C=C2

> <standard_relation>
=

> <Publication_ID>
nan

> <predicted_activity_value>
5.337242168318426

> <actual_activity_value>
6.301029995663981

> <Compound>
13

> <standard_units>
nM

> hash
2012092047828091155

$$$$
13_
XXILIB    08252103513D 0   0.00000     0.00000

 39 41  0     1  0            999 V2000
    5.0031    1.4965    0.0707 Cl  0  0  0  0  0  1           0  0  0
   -3.9250   -3.6566    6.7496 S   0  0  1  0  0  6           0  0  0
   -4.0167   -4.0297    9.3140 F   0  0  0  0  0  1           0  0  0
   -5.7743   -4.7251    8.2202 F   0  0  0  0  0  1           0  0  0
   -3.9079   -5.8503    8.1175 F   0  0  0  0  0  1           0  0  0
   -4.4114   -4.3493    5.5717 O   0  0  0  0  0  2           0  0  0
   -2.5198   -3.3368    6.9061 O   0  0  0  0  0  2           0  0  0
    1.8816    2.3652   -2.3759 O   0  0  0  0  0  2           0  0  0
   -4.3086   -0.0590    4.9586 O   0  0  0  0  0  2           0  0  0
    1.1513    4.3080   -1.3679 O   0  0  0  0  0  2           0  0  0
    1.4518    0.0000    0.0000 N   0  0  0  0  0  3           0  0  0
    3.5392   -0.7614    0.0216 N   0  0  0  0  0  3           0  0  0
   -4.8594   -2.2461    7.0220 N   0  0  0  0  0  3           0  0  0
   -2.0254   -0.0786    5.3497 N   0  0  0  0  0  3           0  0  0
    3.5484    0.6083    0.0369 C   0  0  0  0  0  4           0  0  0
    2.2693   -1.1141    0.0000 C   0  0  0  0  0  4           0  0  0
    2.2632    1.1180    0.0244 C   0  0  0  0  0  4           0  0  0
   -4.3278   -1.1571    7.7973 C   0  0  0  0  0  4           0  0  0
   -1.5639   -0.0522    4.0198 C   0  0  0  0  0  4           0  0  0
   -3.6057   -0.1101    7.1916 C   0  0  0  0  0  4           0  0  0
   -0.5425   -0.0000    1.3969 C   0  0  0  0  0  4           0  0  0
   -4.5872   -1.1034    9.1756 C   0  0  0  0  0  4           0  0  0
   -2.4345   -0.0243    2.9256 C   0  0  0  0  0  4           0  0  0
   -0.1828   -0.0560    3.7996 C   0  0  0  0  0  4           0  0  0
   -3.1221    0.9447    7.9826 C   0  0  0  0  0  4           0  0  0
   -1.9251    0.0000    1.6242 C   0  0  0  0  0  4           0  0  0
    0.3231   -0.0319    2.4977 C   0  0  0  0  0  4           0  0  0
   -4.1031   -0.0495    9.9503 C   0  0  0  0  0  4           0  0  0
   -3.3672    0.9697    9.3554 C   0  0  0  0  0  4           0  0  0
   -4.4265   -4.5988    8.1546 C   0  0  1  0  0  4           0  0  0
    1.6280    3.0314   -1.3797 C   0  0  0  0  0  4           0  0  0
   -3.3525   -0.0803    5.7309 C   0  0  0  0  0  4           0  0  0
    0.9381    4.8959   -2.6553 C   0  0  0  0  0  4           0  0  0
    0.0000    0.0000    0.0000 C   0  0  0  0  0  4           0  0  0
    1.7861   -2.5194   -0.0249 C   0  0  0  0  0  4           0  0  0
    1.7753    2.5197    0.0263 C   0  0  0  0  0  4           0  0  0
    1.6206   -3.0511   -1.4453 C   0  0  0  0  0  4           0  0  0
    2.9061   -3.0516   -2.2736 C   0  0  0  0  0  4           0  0  0
    2.6667   -3.5928   -3.6736 C   0  0  0  0  0  4           0  0  0
  1 15  1  0     0  0
  2  6  2  0     0  0
  2  7  2  0     0  0
  2 13  1  0     0  0
  2 30  1  0     0  0
  3 30  1  0     0  0
  4 30  1  0     0  0
  5 30  1  0     0  0
  8 31  2  0     0  0
  9 32  2  0     0  0
 10 31  1  0     0  0
 10 33  1  0     0  0
 11 16  1  0     0  0
 11 17  1  0     0  0
 11 34  1  0     0  0
 12 15  1  0     0  0
 12 16  2  0     0  0
 13 18  1  0     0  0
 14 19  1  0     0  0
 14 32  1  0     0  0
 15 17  2  0     0  0
 16 35  1  0     0  0
 17 36  1  0     0  0
 18 20  1  0     0  0
 18 22  2  0     0  0
 19 23  2  0     0  0
 19 24  1  0     0  0
 20 25  2  0     0  0
 20 32  1  0     0  0
 21 26  2  0     0  0
 21 27  1  0     0  0
 21 34  1  0     0  0
 22 28  1  0     0  0
 23 26  1  0     0  0
 24 27  2  0     0  0
 25 29  1  0     0  0
 28 29  2  0     0  0
 31 36  1  0     0  0
 35 37  1  0     0  0
 37 38  1  0     0  0
 38 39  1  0     0  0
M  END
> <standard_type>
pIC50

> <# Confs.>
25

> <canonical_smiles>
ClC(N=C1CCCC)=C(CC(OC)=O)N1CC2=CC=C(NC(C3=CC=CC=C3NS(=O)(C(F)(F)F)=O)=O)C=C2

> <standard_relation>
=

> <Publication_ID>
nan

> <predicted_activity_value>
5.337242168318426

> <actual_activity_value>
6.301029995663981

> <Compound>
13

> <standard_units>
nM

> hash
2012092047828091155

$$$$
13_
XXILIB    08252103513D 0   0.00000     0.00000

 39 41  0     1  0            999 V2000
    5.0031   -1.4965   -0.0707 Cl  0  0  0  0  0  1           0  0  0
   -3.9250   -3.6566    6.7496 S   0  0  1  0  0  6           0  0  0
   -4.0167   -4.0297    9.3140 F   0  0  0  0  0  1           0  0  0
   -5.7743   -4.7251    8.2202 F   0  0  0  0  0  1           0  0  0
   -3.9079   -5.8503    8.1175 F   0  0  0  0  0  1           0  0  0
   -4.4114   -4.3493    5.5717 O   0  0  0  0  0  2           0  0  0
   -2.5198   -3.3368    6.9061 O   0  0  0  0  0  2           0  0  0
    1.7899   -2.3268   -2.4281 O   0  0  0  0  0  2           0  0  0
   -4.3086   -0.0590    4.9586 O   0  0  0  0  0  2           0  0  0
    1.1553   -4.3056   -1.4254 O   0  0  0  0  0  2           0  0  0
    1.4518    0.0000   -0.0000 N   0  0  0  0  0  3           0  0  0
    3.5392    0.7614   -0.0216 N   0  0  0  0  0  3           0  0  0
   -4.8594   -2.2461    7.0220 N   0  0  0  0  0  3           0  0  0
   -2.0254   -0.0786    5.3497 N   0  0  0  0  0  3           0  0  0
    3.5484   -0.6083   -0.0369 C   0  0  0  0  0  4           0  0  0
    2.2693    1.1141    0.0000 C   0  0  0  0  0  4           0  0  0
    2.2632   -1.1180   -0.0244 C   0  0  0  0  0  4           0  0  0
   -4.3278   -1.1571    7.7973 C   0  0  0  0  0  4           0  0  0
   -1.5639   -0.0522    4.0198 C   0  0  0  0  0  4           0  0  0
   -3.6057   -0.1101    7.1916 C   0  0  0  0  0  4           0  0  0
   -0.5425   -0.0000    1.3969 C   0  0  0  0  0  4           0  0  0
   -4.5872   -1.1034    9.1756 C   0  0  0  0  0  4           0  0  0
   -2.4345   -0.0243    2.9256 C   0  0  0  0  0  4           0  0  0
   -0.1828   -0.0560    3.7996 C   0  0  0  0  0  4           0  0  0
   -3.1221    0.9447    7.9826 C   0  0  0  0  0  4           0  0  0
   -1.9251    0.0000    1.6242 C   0  0  0  0  0  4           0  0  0
    0.3231   -0.0319    2.4977 C   0  0  0  0  0  4           0  0  0
   -4.1031   -0.0495    9.9503 C   0  0  0  0  0  4           0  0  0
   -3.3672    0.9697    9.3554 C   0  0  0  0  0  4           0  0  0
   -4.4265   -4.5988    8.1546 C   0  0  1  0  0  4           0  0  0
    1.5743   -3.0089   -1.4337 C   0  0  0  0  0  4           0  0  0
   -3.3525   -0.0803    5.7309 C   0  0  0  0  0  4           0  0  0
    0.9584   -4.8957   -2.7144 C   0  0  0  0  0  4           0  0  0
    0.0000    0.0000    0.0000 C   0  0  0  0  0  4           0  0  0
    1.7861    2.5194    0.0249 C   0  0  0  0  0  4           0  0  0
    1.7753   -2.5197   -0.0263 C   0  0  0  0  0  4           0  0  0
    2.9315    3.5272    0.0183 C   0  0  0  0  0  4           0  0  0
    2.4862    4.9900    0.0433 C   0  0  0  0  0  4           0  0  0
    3.6767    5.9350    0.0351 C   0  0  0  0  0  4           0  0  0
  1 15  1  0     0  0
  2  6  2  0     0  0
  2  7  2  0     0  0
  2 13  1  0     0  0
  2 30  1  0     0  0
  3 30  1  0     0  0
  4 30  1  0     0  0
  5 30  1  0     0  0
  8 31  2  0     0  0
  9 32  2  0     0  0
 10 31  1  0     0  0
 10 33  1  0     0  0
 11 16  1  0     0  0
 11 17  1  0     0  0
 11 34  1  0     0  0
 12 15  1  0     0  0
 12 16  2  0     0  0
 13 18  1  0     0  0
 14 19  1  0     0  0
 14 32  1  0     0  0
 15 17  2  0     0  0
 16 35  1  0     0  0
 17 36  1  0     0  0
 18 20  1  0     0  0
 18 22  2  0     0  0
 19 23  2  0     0  0
 19 24  1  0     0  0
 20 25  2  0     0  0
 20 32  1  0     0  0
 21 26  2  0     0  0
 21 27  1  0     0  0
 21 34  1  0     0  0
 22 28  1  0     0  0
 23 26  1  0     0  0
 24 27  2  0     0  0
 25 29  1  0     0  0
 28 29  2  0     0  0
 31 36  1  0     0  0
 35 37  1  0     0  0
 37 38  1  0     0  0
 38 39  1  0     0  0
M  END
> <standard_type>
pIC50

> <# Confs.>
25

> <canonical_smiles>
ClC(N=C1CCCC)=C(CC(OC)=O)N1CC2=CC=C(NC(C3=CC=CC=C3NS(=O)(C(F)(F)F)=O)=O)C=C2

> <standard_relation>
=

> <Publication_ID>
nan

> <predicted_activity_value>
5.337242168318426

> <actual_activity_value>
6.301029995663981

> <Compound>
13

> <standard_units>
nM

> hash
2012092047828091155

$$$$
13_
XXILIB    08252103513D 0   0.00000     0.00000

 39 41  0     1  0            999 V2000
    5.0031    1.4965    0.0707 Cl  0  0  0  0  0  1           0  0  0
   -3.9250   -3.6566    6.7496 S   0  0  1  0  0  6           0  0  0
   -4.0167   -4.0297    9.3140 F   0  0  0  0  0  1           0  0  0
   -5.7743   -4.7251    8.2202 F   0  0  0  0  0  1           0  0  0
   -3.9079   -5.8503    8.1175 F   0  0  0  0  0  1           0  0  0
   -4.4114   -4.3493    5.5717 O   0  0  0  0  0  2           0  0  0
   -2.5198   -3.3368    6.9061 O   0  0  0  0  0  2           0  0  0
    2.2299    2.6153    2.3907 O   0  0  0  0  0  2           0  0  0
   -4.3086   -0.0590    4.9586 O   0  0  0  0  0  2           0  0  0
    0.5947    3.9557    1.4669 O   0  0  0  0  0  2           0  0  0
    1.4518   -0.0000    0.0000 N   0  0  0  0  0  3           0  0  0
    3.5392   -0.7614    0.0216 N   0  0  0  0  0  3           0  0  0
   -4.8594   -2.2461    7.0220 N   0  0  0  0  0  3           0  0  0
   -2.0254   -0.0786    5.3497 N   0  0  0  0  0  3           0  0  0
    3.5484    0.6083    0.0369 C   0  0  0  0  0  4           0  0  0
    2.2693   -1.1141    0.0000 C   0  0  0  0  0  4           0  0  0
    2.2632    1.1180    0.0244 C   0  0  0  0  0  4           0  0  0
   -4.3278   -1.1571    7.7973 C   0  0  0  0  0  4           0  0  0
   -1.5639   -0.0522    4.0198 C   0  0  0  0  0  4           0  0  0
   -3.6057   -0.1101    7.1916 C   0  0  0  0  0  4           0  0  0
   -0.5425   -0.0000    1.3969 C   0  0  0  0  0  4           0  0  0
   -4.5872   -1.1034    9.1756 C   0  0  0  0  0  4           0  0  0
   -2.4345   -0.0243    2.9256 C   0  0  0  0  0  4           0  0  0
   -0.1828   -0.0560    3.7996 C   0  0  0  0  0  4           0  0  0
   -3.1221    0.9447    7.9826 C   0  0  0  0  0  4           0  0  0
   -1.9251    0.0000    1.6242 C   0  0  0  0  0  4           0  0  0
    0.3231   -0.0319    2.4977 C   0  0  0  0  0  4           0  0  0
   -4.1031   -0.0495    9.9503 C   0  0  0  0  0  4           0  0  0
   -3.3672    0.9697    9.3554 C   0  0  0  0  0  4           0  0  0
   -4.4265   -4.5988    8.1546 C   0  0  1  0  0  4           0  0  0
    1.5743    3.0089    1.4337 C   0  0  0  0  0  4           0  0  0
   -3.3525   -0.0803    5.7309 C   0  0  0  0  0  4           0  0  0
    0.3322    4.5229    2.7545 C   0  0  0  0  0  4           0  0  0
    0.0000    0.0000    0.0000 C   0  0  0  0  0  4           0  0  0
    1.7861   -2.5194   -0.0249 C   0  0  0  0  0  4           0  0  0
    1.7753    2.5197    0.0263 C   0  0  0  0  0  4           0  0  0
    1.6206   -3.0511   -1.4453 C   0  0  0  0  0  4           0  0  0
    1.1246   -4.4954   -1.5256 C   0  0  0  0  0  4           0  0  0
    0.9836   -4.9568   -2.9670 C   0  0  0  0  0  4           0  0  0
  1 15  1  0     0  0
  2  6  2  0     0  0
  2  7  2  0     0  0
  2 13  1  0     0  0
  2 30  1  0     0  0
  3 30  1  0     0  0
  4 30  1  0     0  0
  5 30  1  0     0  0
  8 31  2  0     0  0
  9 32  2  0     0  0
 10 31  1  0     0  0
 10 33  1  0     0  0
 11 16  1  0     0  0
 11 17  1  0     0  0
 11 34  1  0     0  0
 12 15  1  0     0  0
 12 16  2  0     0  0
 13 18  1  0     0  0
 14 19  1  0     0  0
 14 32  1  0     0  0
 15 17  2  0     0  0
 16 35  1  0     0  0
 17 36  1  0     0  0
 18 20  1  0     0  0
 18 22  2  0     0  0
 19 23  2  0     0  0
 19 24  1  0     0  0
 20 25  2  0     0  0
 20 32  1  0     0  0
 21 26  2  0     0  0
 21 27  1  0     0  0
 21 34  1  0     0  0
 22 28  1  0     0  0
 23 26  1  0     0  0
 24 27  2  0     0  0
 25 29  1  0     0  0
 28 29  2  0     0  0
 31 36  1  0     0  0
 35 37  1  0     0  0
 37 38  1  0     0  0
 38 39  1  0     0  0
M  END
> <standard_type>
pIC50

> <# Confs.>
25

> <canonical_smiles>
ClC(N=C1CCCC)=C(CC(OC)=O)N1CC2=CC=C(NC(C3=CC=CC=C3NS(=O)(C(F)(F)F)=O)=O)C=C2

> <standard_relation>
=

> <Publication_ID>
nan

> <predicted_activity_value>
5.337242168318426

> <actual_activity_value>
6.301029995663981

> <Compound>
13

> <standard_units>
nM

> hash
2012092047828091155

$$$$
13_
XXILIB    08252103513D 0   0.00000     0.00000

 39 41  0     1  0            999 V2000
    5.0031    1.4965    0.0707 Cl  0  0  0  0  0  1           0  0  0
   -4.5069   -2.7963    6.1420 S   0  0  1  0  0  6           0  0  0
   -4.8507   -3.5826    8.5890 F   0  0  0  0  0  1           0  0  0
   -6.6371   -3.6688    7.3359 F   0  0  0  0  0  1           0  0  0
   -5.0502   -5.1438    7.0787 F   0  0  0  0  0  1           0  0  0
   -5.0480   -3.1469    4.8427 O   0  0  0  0  0  2           0  0  0
   -3.0799   -2.8283    6.3948 O   0  0  0  0  0  2           0  0  0
    1.3577    2.3181   -2.3382 O   0  0  0  0  0  2           0  0  0
   -3.7411    1.5289    5.1790 O   0  0  0  0  0  2           0  0  0
    1.8079    4.3819   -1.4098 O   0  0  0  0  0  2           0  0  0
    1.4518    0.0000    0.0000 N   0  0  0  0  0  3           0  0  0
    3.5392   -0.7614    0.0216 N   0  0  0  0  0  3           0  0  0
   -5.1362   -1.2837    6.6452 N   0  0  0  0  0  3           0  0  0
   -2.0905   -0.0900    5.3244 N   0  0  0  0  0  3           0  0  0
    3.5484    0.6083    0.0369 C   0  0  0  0  0  4           0  0  0
    2.2693   -1.1141    0.0000 C   0  0  0  0  0  4           0  0  0
    2.2632    1.1180    0.0244 C   0  0  0  0  0  4           0  0  0
   -4.4393   -0.4926    7.6239 C   0  0  0  0  0  4           0  0  0
   -1.5976   -0.0351    4.0067 C   0  0  0  0  0  4           0  0  0
   -3.4715    0.4578    7.2438 C   0  0  0  0  0  4           0  0  0
   -0.5425    0.0000    1.3969 C   0  0  0  0  0  4           0  0  0
   -4.7747   -0.6247    8.9803 C   0  0  0  0  0  4           0  0  0
   -2.1202    0.8385    3.0477 C   0  0  0  0  0  4           0  0  0
   -0.5488   -0.8918    3.6575 C   0  0  0  0  0  4           0  0  0
   -2.8296    1.2241    8.2302 C   0  0  0  0  0  4           0  0  0
   -1.5957    0.8531    1.7521 C   0  0  0  0  0  4           0  0  0
   -0.0270   -0.8750    2.3618 C   0  0  0  0  0  4           0  0  0
   -4.1316    0.1434    9.9505 C   0  0  0  0  0  4           0  0  0
   -3.1569    1.0621    9.5763 C   0  0  0  0  0  4           0  0  0
   -5.2920   -3.8348    7.3330 C   0  0  1  0  0  4           0  0  0
    1.6280    3.0314   -1.3797 C   0  0  0  0  0  4           0  0  0
   -3.1187    0.6859    5.8217 C   0  0  0  0  0  4           0  0  0
    1.6604    4.9926   -2.6958 C   0  0  0  0  0  4           0  0  0
    0.0000    0.0000    0.0000 C   0  0  0  0  0  4           0  0  0
    1.7861   -2.5194   -0.0249 C   0  0  0  0  0  4           0  0  0
    1.7753    2.5197    0.0263 C   0  0  0  0  0  4           0  0  0
    2.5571   -3.3807   -1.0206 C   0  0  0  0  0  4           0  0  0
    2.4738   -2.8995   -2.4697 C   0  0  0  0  0  4           0  0  0
    3.2632   -3.8027   -3.4030 C   0  0  0  0  0  4           0  0  0
  1 15  1  0     0  0
  2  6  2  0     0  0
  2  7  2  0     0  0
  2 13  1  0     0  0
  2 30  1  0     0  0
  3 30  1  0     0  0
  4 30  1  0     0  0
  5 30  1  0     0  0
  8 31  2  0     0  0
  9 32  2  0     0  0
 10 31  1  0     0  0
 10 33  1  0     0  0
 11 16  1  0     0  0
 11 17  1  0     0  0
 11 34  1  0     0  0
 12 15  1  0     0  0
 12 16  2  0     0  0
 13 18  1  0     0  0
 14 19  1  0     0  0
 14 32  1  0     0  0
 15 17  2  0     0  0
 16 35  1  0     0  0
 17 36  1  0     0  0
 18 20  1  0     0  0
 18 22  2  0     0  0
 19 23  2  0     0  0
 19 24  1  0     0  0
 20 25  2  0     0  0
 20 32  1  0     0  0
 21 26  2  0     0  0
 21 27  1  0     0  0
 21 34  1  0     0  0
 22 28  1  0     0  0
 23 26  1  0     0  0
 24 27  2  0     0  0
 25 29  1  0     0  0
 28 29  2  0     0  0
 31 36  1  0     0  0
 35 37  1  0     0  0
 37 38  1  0     0  0
 38 39  1  0     0  0
M  END
> <standard_type>
pIC50

> <# Confs.>
25

> <canonical_smiles>
ClC(N=C1CCCC)=C(CC(OC)=O)N1CC2=CC=C(NC(C3=CC=CC=C3NS(=O)(C(F)(F)F)=O)=O)C=C2

> <standard_relation>
=

> <Publication_ID>
nan

> <predicted_activity_value>
5.337242168318426

> <actual_activity_value>
6.301029995663981

> <Compound>
13

> <standard_units>
nM

> hash
2012092047828091155

$$$$
13_
XXILIB    08252103513D 0   0.00000     0.00000

 39 41  0     1  0            999 V2000
    5.0031    1.4965    0.0707 Cl  0  0  0  0  0  1           0  0  0
   -6.0034   -1.7264    5.9424 S   0  0  1  0  0  6           0  0  0
   -6.5712   -2.5862    8.3219 F   0  0  0  0  0  1           0  0  0
   -8.2317   -1.6394    7.2658 F   0  0  0  0  0  1           0  0  0
   -7.5718   -3.6390    6.6945 F   0  0  0  0  0  1           0  0  0
   -6.7062   -1.5941    4.6804 O   0  0  0  0  0  2           0  0  0
   -4.7606   -2.4665    6.0358 O   0  0  0  0  0  2           0  0  0
    1.3577    2.3181   -2.3382 O   0  0  0  0  0  2           0  0  0
   -3.7411    1.5289    5.1790 O   0  0  0  0  0  2           0  0  0
    1.8079    4.3819   -1.4098 O   0  0  0  0  0  2           0  0  0
    1.4518    0.0000    0.0000 N   0  0  0  0  0  3           0  0  0
    3.5392   -0.7614    0.0216 N   0  0  0  0  0  3           0  0  0
   -5.7972   -0.1828    6.6578 N   0  0  0  0  0  3           0  0  0
   -2.0905   -0.0900    5.3244 N   0  0  0  0  0  3           0  0  0
    3.5484    0.6083    0.0369 C   0  0  0  0  0  4           0  0  0
    2.2693   -1.1141    0.0000 C   0  0  0  0  0  4           0  0  0
    2.2632    1.1180    0.0244 C   0  0  0  0  0  4           0  0  0
   -4.7598    0.0383    7.6295 C   0  0  0  0  0  4           0  0  0
   -1.5976   -0.0351    4.0067 C   0  0  0  0  0  4           0  0  0
   -3.4715    0.4578    7.2438 C   0  0  0  0  0  4           0  0  0
   -0.5425    0.0000    1.3969 C   0  0  0  0  0  4           0  0  0
   -5.0539   -0.1055    8.9943 C   0  0  0  0  0  4           0  0  0
   -2.1202    0.8385    3.0477 C   0  0  0  0  0  4           0  0  0
   -0.5488   -0.8918    3.6575 C   0  0  0  0  0  4           0  0  0
   -2.4938    0.6824    8.2266 C   0  0  0  0  0  4           0  0  0
   -1.5957    0.8531    1.7521 C   0  0  0  0  0  4           0  0  0
   -0.0270   -0.8750    2.3618 C   0  0  0  0  0  4           0  0  0
   -4.0750    0.1223    9.9612 C   0  0  0  0  0  4           0  0  0
   -2.7958    0.5102    9.5773 C   0  0  0  0  0  4           0  0  0
   -7.1372   -2.4217    7.1018 C   0  0  1  0  0  4           0  0  0
    1.6280    3.0314   -1.3797 C   0  0  0  0  0  4           0  0  0
   -3.1187    0.6859    5.8217 C   0  0  0  0  0  4           0  0  0
    1.6604    4.9926   -2.6958 C   0  0  0  0  0  4           0  0  0
    0.0000    0.0000   -0.0000 C   0  0  0  0  0  4           0  0  0
    1.7861   -2.5194   -0.0249 C   0  0  0  0  0  4           0  0  0
    1.7753    2.5197    0.0263 C   0  0  0  0  0  4           0  0  0
    1.6206   -3.0511   -1.4453 C   0  0  0  0  0  4           0  0  0
    1.1246   -4.4954   -1.5256 C   0  0  0  0  0  4           0  0  0
    0.9836   -4.9568   -2.9670 C   0  0  0  0  0  4           0  0  0
  1 15  1  0     0  0
  2  6  2  0     0  0
  2  7  2  0     0  0
  2 13  1  0     0  0
  2 30  1  0     0  0
  3 30  1  0     0  0
  4 30  1  0     0  0
  5 30  1  0     0  0
  8 31  2  0     0  0
  9 32  2  0     0  0
 10 31  1  0     0  0
 10 33  1  0     0  0
 11 16  1  0     0  0
 11 17  1  0     0  0
 11 34  1  0     0  0
 12 15  1  0     0  0
 12 16  2  0     0  0
 13 18  1  0     0  0
 14 19  1  0     0  0
 14 32  1  0     0  0
 15 17  2  0     0  0
 16 35  1  0     0  0
 17 36  1  0     0  0
 18 20  1  0     0  0
 18 22  2  0     0  0
 19 23  2  0     0  0
 19 24  1  0     0  0
 20 25  2  0     0  0
 20 32  1  0     0  0
 21 26  2  0     0  0
 21 27  1  0     0  0
 21 34  1  0     0  0
 22 28  1  0     0  0
 23 26  1  0     0  0
 24 27  2  0     0  0
 25 29  1  0     0  0
 28 29  2  0     0  0
 31 36  1  0     0  0
 35 37  1  0     0  0
 37 38  1  0     0  0
 38 39  1  0     0  0
M  END
> <standard_type>
pIC50

> <# Confs.>
25

> <canonical_smiles>
ClC(N=C1CCCC)=C(CC(OC)=O)N1CC2=CC=C(NC(C3=CC=CC=C3NS(=O)(C(F)(F)F)=O)=O)C=C2

> <standard_relation>
=

> <Publication_ID>
nan

> <predicted_activity_value>
5.337242168318426

> <actual_activity_value>
6.301029995663981

> <Compound>
13

> <standard_units>
nM

> hash
2012092047828091155

$$$$
13_
XXILIB    08252103513D 0   0.00000     0.00000

 39 41  0     1  0            999 V2000
    5.0031    1.4965    0.0707 Cl  0  0  0  0  0  1           0  0  0
   -6.0034   -1.7264    5.9424 S   0  0  1  0  0  6           0  0  0
   -6.5712   -2.5862    8.3219 F   0  0  0  0  0  1           0  0  0
   -8.2317   -1.6394    7.2658 F   0  0  0  0  0  1           0  0  0
   -7.5718   -3.6390    6.6945 F   0  0  0  0  0  1           0  0  0
   -6.7062   -1.5941    4.6804 O   0  0  0  0  0  2           0  0  0
   -4.7606   -2.4665    6.0358 O   0  0  0  0  0  2           0  0  0
    1.3577    2.3181   -2.3382 O   0  0  0  0  0  2           0  0  0
   -3.7411    1.5289    5.1790 O   0  0  0  0  0  2           0  0  0
    1.8079    4.3819   -1.4098 O   0  0  0  0  0  2           0  0  0
    1.4518    0.0000    0.0000 N   0  0  0  0  0  3           0  0  0
    3.5392   -0.7614    0.0216 N   0  0  0  0  0  3           0  0  0
   -5.7972   -0.1828    6.6578 N   0  0  0  0  0  3           0  0  0
   -2.0905   -0.0900    5.3244 N   0  0  0  0  0  3           0  0  0
    3.5484    0.6083    0.0369 C   0  0  0  0  0  4           0  0  0
    2.2693   -1.1141    0.0000 C   0  0  0  0  0  4           0  0  0
    2.2632    1.1180    0.0244 C   0  0  0  0  0  4           0  0  0
   -4.7598    0.0383    7.6295 C   0  0  0  0  0  4           0  0  0
   -1.5976   -0.0351    4.0067 C   0  0  0  0  0  4           0  0  0
   -3.4715    0.4578    7.2438 C   0  0  0  0  0  4           0  0  0
   -0.5425    0.0000    1.3969 C   0  0  0  0  0  4           0  0  0
   -5.0539   -0.1055    8.9943 C   0  0  0  0  0  4           0  0  0
   -2.1202    0.8385    3.0477 C   0  0  0  0  0  4           0  0  0
   -0.5488   -0.8918    3.6575 C   0  0  0  0  0  4           0  0  0
   -2.4938    0.6824    8.2266 C   0  0  0  0  0  4           0  0  0
   -1.5957    0.8531    1.7521 C   0  0  0  0  0  4           0  0  0
   -0.0270   -0.8750    2.3618 C   0  0  0  0  0  4           0  0  0
   -4.0750    0.1223    9.9612 C   0  0  0  0  0  4           0  0  0
   -2.7958    0.5102    9.5773 C   0  0  0  0  0  4           0  0  0
   -7.1372   -2.4217    7.1018 C   0  0  1  0  0  4           0  0  0
    1.6280    3.0314   -1.3797 C   0  0  0  0  0  4           0  0  0
   -3.1187    0.6859    5.8217 C   0  0  0  0  0  4           0  0  0
    1.6604    4.9926   -2.6958 C   0  0  0  0  0  4           0  0  0
    0.0000    0.0000   -0.0000 C   0  0  0  0  0  4           0  0  0
    1.7861   -2.5194   -0.0249 C   0  0  0  0  0  4           0  0  0
    1.7753    2.5197    0.0263 C   0  0  0  0  0  4           0  0  0
    2.5243   -3.4048    0.9744 C   0  0  0  0  0  4           0  0  0
    2.0633   -4.8628    0.9879 C   0  0  0  0  0  4           0  0  0
    2.8402   -5.6835    2.0044 C   0  0  0  0  0  4           0  0  0
  1 15  1  0     0  0
  2  6  2  0     0  0
  2  7  2  0     0  0
  2 13  1  0     0  0
  2 30  1  0     0  0
  3 30  1  0     0  0
  4 30  1  0     0  0
  5 30  1  0     0  0
  8 31  2  0     0  0
  9 32  2  0     0  0
 10 31  1  0     0  0
 10 33  1  0     0  0
 11 16  1  0     0  0
 11 17  1  0     0  0
 11 34  1  0     0  0
 12 15  1  0     0  0
 12 16  2  0     0  0
 13 18  1  0     0  0
 14 19  1  0     0  0
 14 32  1  0     0  0
 15 17  2  0     0  0
 16 35  1  0     0  0
 17 36  1  0     0  0
 18 20  1  0     0  0
 18 22  2  0     0  0
 19 23  2  0     0  0
 19 24  1  0     0  0
 20 25  2  0     0  0
 20 32  1  0     0  0
 21 26  2  0     0  0
 21 27  1  0     0  0
 21 34  1  0     0  0
 22 28  1  0     0  0
 23 26  1  0     0  0
 24 27  2  0     0  0
 25 29  1  0     0  0
 28 29  2  0     0  0
 31 36  1  0     0  0
 35 37  1  0     0  0
 37 38  1  0     0  0
 38 39  1  0     0  0
M  END
> <standard_type>
pIC50

> <# Confs.>
25

> <canonical_smiles>
ClC(N=C1CCCC)=C(CC(OC)=O)N1CC2=CC=C(NC(C3=CC=CC=C3NS(=O)(C(F)(F)F)=O)=O)C=C2

> <standard_relation>
=

> <Publication_ID>
nan

> <predicted_activity_value>
5.337242168318426

> <actual_activity_value>
6.301029995663981

> <Compound>
13

> <standard_units>
nM

> hash
2012092047828091155

$$$$
13_
XXILIB    08252103513D 0   0.00000     0.00000

 39 41  0     1  0            999 V2000
    5.0031    1.4965    0.0707 Cl  0  0  0  0  0  1           0  0  0
   -3.9250   -3.6566    6.7496 S   0  0  1  0  0  6           0  0  0
   -4.0167   -4.0297    9.3140 F   0  0  0  0  0  1           0  0  0
   -5.7743   -4.7251    8.2202 F   0  0  0  0  0  1           0  0  0
   -3.9079   -5.8503    8.1175 F   0  0  0  0  0  1           0  0  0
   -4.4114   -4.3493    5.5717 O   0  0  0  0  0  2           0  0  0
   -2.5198   -3.3368    6.9061 O   0  0  0  0  0  2           0  0  0
    1.3577    2.3181   -2.3382 O   0  0  0  0  0  2           0  0  0
   -4.3086   -0.0590    4.9586 O   0  0  0  0  0  2           0  0  0
    1.8079    4.3819   -1.4098 O   0  0  0  0  0  2           0  0  0
    1.4518    0.0000    0.0000 N   0  0  0  0  0  3           0  0  0
    3.5392   -0.7614    0.0216 N   0  0  0  0  0  3           0  0  0
   -4.8594   -2.2461    7.0220 N   0  0  0  0  0  3           0  0  0
   -2.0254   -0.0786    5.3497 N   0  0  0  0  0  3           0  0  0
    3.5484    0.6083    0.0369 C   0  0  0  0  0  4           0  0  0
    2.2693   -1.1141    0.0000 C   0  0  0  0  0  4           0  0  0
    2.2632    1.1180    0.0244 C   0  0  0  0  0  4           0  0  0
   -4.3278   -1.1571    7.7973 C   0  0  0  0  0  4           0  0  0
   -1.5639   -0.0522    4.0198 C   0  0  0  0  0  4           0  0  0
   -3.6057   -0.1101    7.1916 C   0  0  0  0  0  4           0  0  0
   -0.5425   -0.0000    1.3969 C   0  0  0  0  0  4           0  0  0
   -4.5872   -1.1034    9.1756 C   0  0  0  0  0  4           0  0  0
   -2.4345   -0.0243    2.9256 C   0  0  0  0  0  4           0  0  0
   -0.1828   -0.0560    3.7996 C   0  0  0  0  0  4           0  0  0
   -3.1221    0.9447    7.9826 C   0  0  0  0  0  4           0  0  0
   -1.9251    0.0000    1.6242 C   0  0  0  0  0  4           0  0  0
    0.3231   -0.0319    2.4977 C   0  0  0  0  0  4           0  0  0
   -4.1031   -0.0495    9.9503 C   0  0  0  0  0  4           0  0  0
   -3.3672    0.9697    9.3554 C   0  0  0  0  0  4           0  0  0
   -4.4265   -4.5988    8.1546 C   0  0  1  0  0  4           0  0  0
    1.6280    3.0314   -1.3797 C   0  0  0  0  0  4           0  0  0
   -3.3525   -0.0803    5.7309 C   0  0  0  0  0  4           0  0  0
    1.6604    4.9926   -2.6958 C   0  0  0  0  0  4           0  0  0
    0.0000    0.0000    0.0000 C   0  0  0  0  0  4           0  0  0
    1.7861   -2.5194   -0.0249 C   0  0  0  0  0  4           0  0  0
    1.7753    2.5197    0.0263 C   0  0  0  0  0  4           0  0  0
    1.5741   -3.0852    1.3760 C   0  0  0  0  0  4           0  0  0
    1.0763   -4.5308    1.4050 C   0  0  0  0  0  4           0  0  0
    0.8881   -5.0269    2.8294 C   0  0  0  0  0  4           0  0  0
  1 15  1  0     0  0
  2  6  2  0     0  0
  2  7  2  0     0  0
  2 13  1  0     0  0
  2 30  1  0     0  0
  3 30  1  0     0  0
  4 30  1  0     0  0
  5 30  1  0     0  0
  8 31  2  0     0  0
  9 32  2  0     0  0
 10 31  1  0     0  0
 10 33  1  0     0  0
 11 16  1  0     0  0
 11 17  1  0     0  0
 11 34  1  0     0  0
 12 15  1  0     0  0
 12 16  2  0     0  0
 13 18  1  0     0  0
 14 19  1  0     0  0
 14 32  1  0     0  0
 15 17  2  0     0  0
 16 35  1  0     0  0
 17 36  1  0     0  0
 18 20  1  0     0  0
 18 22  2  0     0  0
 19 23  2  0     0  0
 19 24  1  0     0  0
 20 25  2  0     0  0
 20 32  1  0     0  0
 21 26  2  0     0  0
 21 27  1  0     0  0
 21 34  1  0     0  0
 22 28  1  0     0  0
 23 26  1  0     0  0
 24 27  2  0     0  0
 25 29  1  0     0  0
 28 29  2  0     0  0
 31 36  1  0     0  0
 35 37  1  0     0  0
 37 38  1  0     0  0
 38 39  1  0     0  0
M  END
> <standard_type>
pIC50

> <# Confs.>
25

> <canonical_smiles>
ClC(N=C1CCCC)=C(CC(OC)=O)N1CC2=CC=C(NC(C3=CC=CC=C3NS(=O)(C(F)(F)F)=O)=O)C=C2

> <standard_relation>
=

> <Publication_ID>
nan

> <predicted_activity_value>
5.337242168318426

> <actual_activity_value>
6.301029995663981

> <Compound>
13

> <standard_units>
nM

> hash
2012092047828091155

$$$$
13_
XXILIB    08252103513D 0   0.00000     0.00000

 39 41  0     1  0            999 V2000
    5.0031    1.4965    0.0707 Cl  0  0  0  0  0  1           0  0  0
   -3.9250   -3.6566    6.7496 S   0  0  1  0  0  6           0  0  0
   -4.0167   -4.0297    9.3140 F   0  0  0  0  0  1           0  0  0
   -5.7743   -4.7251    8.2202 F   0  0  0  0  0  1           0  0  0
   -3.9079   -5.8503    8.1175 F   0  0  0  0  0  1           0  0  0
   -4.4114   -4.3493    5.5717 O   0  0  0  0  0  2           0  0  0
   -2.5198   -3.3368    6.9061 O   0  0  0  0  0  2           0  0  0
    1.8816    2.3652   -2.3759 O   0  0  0  0  0  2           0  0  0
   -4.3086   -0.0590    4.9586 O   0  0  0  0  0  2           0  0  0
    1.1513    4.3080   -1.3679 O   0  0  0  0  0  2           0  0  0
    1.4518    0.0000    0.0000 N   0  0  0  0  0  3           0  0  0
    3.5392   -0.7614    0.0216 N   0  0  0  0  0  3           0  0  0
   -4.8594   -2.2461    7.0220 N   0  0  0  0  0  3           0  0  0
   -2.0254   -0.0786    5.3497 N   0  0  0  0  0  3           0  0  0
    3.5484    0.6083    0.0369 C   0  0  0  0  0  4           0  0  0
    2.2693   -1.1141    0.0000 C   0  0  0  0  0  4           0  0  0
    2.2632    1.1180    0.0244 C   0  0  0  0  0  4           0  0  0
   -4.3278   -1.1571    7.7973 C   0  0  0  0  0  4           0  0  0
   -1.5639   -0.0522    4.0198 C   0  0  0  0  0  4           0  0  0
   -3.6057   -0.1101    7.1916 C   0  0  0  0  0  4           0  0  0
   -0.5425   -0.0000    1.3969 C   0  0  0  0  0  4           0  0  0
   -4.5872   -1.1034    9.1756 C   0  0  0  0  0  4           0  0  0
   -2.4345   -0.0243    2.9256 C   0  0  0  0  0  4           0  0  0
   -0.1828   -0.0560    3.7996 C   0  0  0  0  0  4           0  0  0
   -3.1221    0.9447    7.9826 C   0  0  0  0  0  4           0  0  0
   -1.9251    0.0000    1.6242 C   0  0  0  0  0  4           0  0  0
    0.3231   -0.0319    2.4977 C   0  0  0  0  0  4           0  0  0
   -4.1031   -0.0495    9.9503 C   0  0  0  0  0  4           0  0  0
   -3.3672    0.9697    9.3554 C   0  0  0  0  0  4           0  0  0
   -4.4265   -4.5988    8.1546 C   0  0  1  0  0  4           0  0  0
    1.6280    3.0314   -1.3797 C   0  0  0  0  0  4           0  0  0
   -3.3525   -0.0803    5.7309 C   0  0  0  0  0  4           0  0  0
    0.9381    4.8959   -2.6553 C   0  0  0  0  0  4           0  0  0
    0.0000    0.0000    0.0000 C   0  0  0  0  0  4           0  0  0
    1.7861   -2.5194   -0.0249 C   0  0  0  0  0  4           0  0  0
    1.7753    2.5197    0.0263 C   0  0  0  0  0  4           0  0  0
    2.9315   -3.5272   -0.0183 C   0  0  0  0  0  4           0  0  0
    2.4862   -4.9900   -0.0433 C   0  0  0  0  0  4           0  0  0
    3.6767   -5.9350   -0.0351 C   0  0  0  0  0  4           0  0  0
  1 15  1  0     0  0
  2  6  2  0     0  0
  2  7  2  0     0  0
  2 13  1  0     0  0
  2 30  1  0     0  0
  3 30  1  0     0  0
  4 30  1  0     0  0
  5 30  1  0     0  0
  8 31  2  0     0  0
  9 32  2  0     0  0
 10 31  1  0     0  0
 10 33  1  0     0  0
 11 16  1  0     0  0
 11 17  1  0     0  0
 11 34  1  0     0  0
 12 15  1  0     0  0
 12 16  2  0     0  0
 13 18  1  0     0  0
 14 19  1  0     0  0
 14 32  1  0     0  0
 15 17  2  0     0  0
 16 35  1  0     0  0
 17 36  1  0     0  0
 18 20  1  0     0  0
 18 22  2  0     0  0
 19 23  2  0     0  0
 19 24  1  0     0  0
 20 25  2  0     0  0
 20 32  1  0     0  0
 21 26  2  0     0  0
 21 27  1  0     0  0
 21 34  1  0     0  0
 22 28  1  0     0  0
 23 26  1  0     0  0
 24 27  2  0     0  0
 25 29  1  0     0  0
 28 29  2  0     0  0
 31 36  1  0     0  0
 35 37  1  0     0  0
 37 38  1  0     0  0
 38 39  1  0     0  0
M  END
> <standard_type>
pIC50

> <# Confs.>
25

> <canonical_smiles>
ClC(N=C1CCCC)=C(CC(OC)=O)N1CC2=CC=C(NC(C3=CC=CC=C3NS(=O)(C(F)(F)F)=O)=O)C=C2

> <standard_relation>
=

> <Publication_ID>
nan

> <predicted_activity_value>
5.337242168318426

> <actual_activity_value>
6.301029995663981

> <Compound>
13

> <standard_units>
nM

> hash
2012092047828091155

$$$$
13_
XXILIB    08252103513D 0   0.00000     0.00000

 39 41  0     1  0            999 V2000
    5.0031   -1.4965   -0.0707 Cl  0  0  0  0  0  1           0  0  0
   -6.0034   -1.7264    5.9424 S   0  0  1  0  0  6           0  0  0
   -6.5712   -2.5862    8.3219 F   0  0  0  0  0  1           0  0  0
   -8.2317   -1.6394    7.2658 F   0  0  0  0  0  1           0  0  0
   -7.5718   -3.6390    6.6945 F   0  0  0  0  0  1           0  0  0
   -6.7062   -1.5941    4.6804 O   0  0  0  0  0  2           0  0  0
   -4.7606   -2.4665    6.0358 O   0  0  0  0  0  2           0  0  0
    1.2678   -2.2804   -2.3696 O   0  0  0  0  0  2           0  0  0
   -3.7411    1.5289    5.1790 O   0  0  0  0  0  2           0  0  0
    1.8112   -4.3490   -1.5040 O   0  0  0  0  0  2           0  0  0
    1.4518    0.0000   -0.0000 N   0  0  0  0  0  3           0  0  0
    3.5392    0.7614   -0.0216 N   0  0  0  0  0  3           0  0  0
   -5.7972   -0.1828    6.6578 N   0  0  0  0  0  3           0  0  0
   -2.0905   -0.0900    5.3244 N   0  0  0  0  0  3           0  0  0
    3.5484   -0.6083   -0.0369 C   0  0  0  0  0  4           0  0  0
    2.2693    1.1141    0.0000 C   0  0  0  0  0  4           0  0  0
    2.2632   -1.1180   -0.0244 C   0  0  0  0  0  4           0  0  0
   -4.7598    0.0383    7.6295 C   0  0  0  0  0  4           0  0  0
   -1.5976   -0.0351    4.0067 C   0  0  0  0  0  4           0  0  0
   -3.4715    0.4578    7.2438 C   0  0  0  0  0  4           0  0  0
   -0.5425    0.0000    1.3969 C   0  0  0  0  0  4           0  0  0
   -5.0539   -0.1055    8.9943 C   0  0  0  0  0  4           0  0  0
   -2.1202    0.8385    3.0477 C   0  0  0  0  0  4           0  0  0
   -0.5488   -0.8918    3.6575 C   0  0  0  0  0  4           0  0  0
   -2.4938    0.6824    8.2266 C   0  0  0  0  0  4           0  0  0
   -1.5957    0.8531    1.7521 C   0  0  0  0  0  4           0  0  0
   -0.0270   -0.8750    2.3618 C   0  0  0  0  0  4           0  0  0
   -4.0750    0.1223    9.9612 C   0  0  0  0  0  4           0  0  0
   -2.7958    0.5102    9.5773 C   0  0  0  0  0  4           0  0  0
   -7.1372   -2.4217    7.1018 C   0  0  1  0  0  4           0  0  0
    1.5743   -3.0089   -1.4337 C   0  0  0  0  0  4           0  0  0
   -3.1187    0.6859    5.8217 C   0  0  0  0  0  4           0  0  0
    1.6817   -4.9282   -2.8064 C   0  0  0  0  0  4           0  0  0
    0.0000    0.0000   -0.0000 C   0  0  0  0  0  4           0  0  0
    1.7861    2.5194    0.0249 C   0  0  0  0  0  4           0  0  0
    1.7753   -2.5197   -0.0263 C   0  0  0  0  0  4           0  0  0
    1.5741    3.0852   -1.3760 C   0  0  0  0  0  4           0  0  0
    1.0763    4.5308   -1.4050 C   0  0  0  0  0  4           0  0  0
    0.8881    5.0269   -2.8294 C   0  0  0  0  0  4           0  0  0
  1 15  1  0     0  0
  2  6  2  0     0  0
  2  7  2  0     0  0
  2 13  1  0     0  0
  2 30  1  0     0  0
  3 30  1  0     0  0
  4 30  1  0     0  0
  5 30  1  0     0  0
  8 31  2  0     0  0
  9 32  2  0     0  0
 10 31  1  0     0  0
 10 33  1  0     0  0
 11 16  1  0     0  0
 11 17  1  0     0  0
 11 34  1  0     0  0
 12 15  1  0     0  0
 12 16  2  0     0  0
 13 18  1  0     0  0
 14 19  1  0     0  0
 14 32  1  0     0  0
 15 17  2  0     0  0
 16 35  1  0     0  0
 17 36  1  0     0  0
 18 20  1  0     0  0
 18 22  2  0     0  0
 19 23  2  0     0  0
 19 24  1  0     0  0
 20 25  2  0     0  0
 20 32  1  0     0  0
 21 26  2  0     0  0
 21 27  1  0     0  0
 21 34  1  0     0  0
 22 28  1  0     0  0
 23 26  1  0     0  0
 24 27  2  0     0  0
 25 29  1  0     0  0
 28 29  2  0     0  0
 31 36  1  0     0  0
 35 37  1  0     0  0
 37 38  1  0     0  0
 38 39  1  0     0  0
M  END
> <standard_type>
pIC50

> <# Confs.>
25

> <canonical_smiles>
ClC(N=C1CCCC)=C(CC(OC)=O)N1CC2=CC=C(NC(C3=CC=CC=C3NS(=O)(C(F)(F)F)=O)=O)C=C2

> <standard_relation>
=

> <Publication_ID>
nan

> <predicted_activity_value>
5.337242168318426

> <actual_activity_value>
6.301029995663981

> <Compound>
13

> <standard_units>
nM

> hash
2012092047828091155

$$$$
13_
XXILIB    08252103513D 0   0.00000     0.00000

 39 41  0     1  0            999 V2000
    5.0031    1.4965    0.0707 Cl  0  0  0  0  0  1           0  0  0
   -4.5069   -2.7963    6.1420 S   0  0  1  0  0  6           0  0  0
   -4.8507   -3.5826    8.5890 F   0  0  0  0  0  1           0  0  0
   -6.6371   -3.6688    7.3359 F   0  0  0  0  0  1           0  0  0
   -5.0502   -5.1438    7.0787 F   0  0  0  0  0  1           0  0  0
   -5.0480   -3.1469    4.8427 O   0  0  0  0  0  2           0  0  0
   -3.0799   -2.8283    6.3948 O   0  0  0  0  0  2           0  0  0
    1.3577    2.3181   -2.3382 O   0  0  0  0  0  2           0  0  0
   -3.7411    1.5289    5.1790 O   0  0  0  0  0  2           0  0  0
    1.8079    4.3819   -1.4098 O   0  0  0  0  0  2           0  0  0
    1.4518    0.0000    0.0000 N   0  0  0  0  0  3           0  0  0
    3.5392   -0.7614    0.0216 N   0  0  0  0  0  3           0  0  0
   -5.1362   -1.2837    6.6452 N   0  0  0  0  0  3           0  0  0
   -2.0905   -0.0900    5.3244 N   0  0  0  0  0  3           0  0  0
    3.5484    0.6083    0.0369 C   0  0  0  0  0  4           0  0  0
    2.2693   -1.1141    0.0000 C   0  0  0  0  0  4           0  0  0
    2.2632    1.1180    0.0244 C   0  0  0  0  0  4           0  0  0
   -4.4393   -0.4926    7.6239 C   0  0  0  0  0  4           0  0  0
   -1.5976   -0.0351    4.0067 C   0  0  0  0  0  4           0  0  0
   -3.4715    0.4578    7.2438 C   0  0  0  0  0  4           0  0  0
   -0.5425    0.0000    1.3969 C   0  0  0  0  0  4           0  0  0
   -4.7747   -0.6247    8.9803 C   0  0  0  0  0  4           0  0  0
   -2.1202    0.8385    3.0477 C   0  0  0  0  0  4           0  0  0
   -0.5488   -0.8918    3.6575 C   0  0  0  0  0  4           0  0  0
   -2.8296    1.2241    8.2302 C   0  0  0  0  0  4           0  0  0
   -1.5957    0.8531    1.7521 C   0  0  0  0  0  4           0  0  0
   -0.0270   -0.8750    2.3618 C   0  0  0  0  0  4           0  0  0
   -4.1316    0.1434    9.9505 C   0  0  0  0  0  4           0  0  0
   -3.1569    1.0621    9.5763 C   0  0  0  0  0  4           0  0  0
   -5.2920   -3.8348    7.3330 C   0  0  1  0  0  4           0  0  0
    1.6280    3.0314   -1.3797 C   0  0  0  0  0  4           0  0  0
   -3.1187    0.6859    5.8217 C   0  0  0  0  0  4           0  0  0
    1.6604    4.9926   -2.6958 C   0  0  0  0  0  4           0  0  0
    0.0000    0.0000    0.0000 C   0  0  0  0  0  4           0  0  0
    1.7861   -2.5194   -0.0249 C   0  0  0  0  0  4           0  0  0
    1.7753    2.5197    0.0263 C   0  0  0  0  0  4           0  0  0
    1.6206   -3.0511   -1.4453 C   0  0  0  0  0  4           0  0  0
    1.1246   -4.4954   -1.5256 C   0  0  0  0  0  4           0  0  0
    0.9836   -4.9568   -2.9670 C   0  0  0  0  0  4           0  0  0
  1 15  1  0     0  0
  2  6  2  0     0  0
  2  7  2  0     0  0
  2 13  1  0     0  0
  2 30  1  0     0  0
  3 30  1  0     0  0
  4 30  1  0     0  0
  5 30  1  0     0  0
  8 31  2  0     0  0
  9 32  2  0     0  0
 10 31  1  0     0  0
 10 33  1  0     0  0
 11 16  1  0     0  0
 11 17  1  0     0  0
 11 34  1  0     0  0
 12 15  1  0     0  0
 12 16  2  0     0  0
 13 18  1  0     0  0
 14 19  1  0     0  0
 14 32  1  0     0  0
 15 17  2  0     0  0
 16 35  1  0     0  0
 17 36  1  0     0  0
 18 20  1  0     0  0
 18 22  2  0     0  0
 19 23  2  0     0  0
 19 24  1  0     0  0
 20 25  2  0     0  0
 20 32  1  0     0  0
 21 26  2  0     0  0
 21 27  1  0     0  0
 21 34  1  0     0  0
 22 28  1  0     0  0
 23 26  1  0     0  0
 24 27  2  0     0  0
 25 29  1  0     0  0
 28 29  2  0     0  0
 31 36  1  0     0  0
 35 37  1  0     0  0
 37 38  1  0     0  0
 38 39  1  0     0  0
M  END
> <standard_type>
pIC50

> <# Confs.>
25

> <canonical_smiles>
ClC(N=C1CCCC)=C(CC(OC)=O)N1CC2=CC=C(NC(C3=CC=CC=C3NS(=O)(C(F)(F)F)=O)=O)C=C2

> <standard_relation>
=

> <Publication_ID>
nan

> <predicted_activity_value>
5.337242168318426

> <actual_activity_value>
6.301029995663981

> <Compound>
13

> <standard_units>
nM

> hash
2012092047828091155

$$$$
13_
XXILIB    08252103513D 0   0.00000     0.00000

 39 41  0     1  0            999 V2000
    5.0031    1.4965    0.0707 Cl  0  0  0  0  0  1           0  0  0
   -4.5069   -2.7963    6.1420 S   0  0  1  0  0  6           0  0  0
   -4.8507   -3.5826    8.5890 F   0  0  0  0  0  1           0  0  0
   -6.6371   -3.6688    7.3359 F   0  0  0  0  0  1           0  0  0
   -5.0502   -5.1438    7.0787 F   0  0  0  0  0  1           0  0  0
   -5.0480   -3.1469    4.8427 O   0  0  0  0  0  2           0  0  0
   -3.0799   -2.8283    6.3948 O   0  0  0  0  0  2           0  0  0
    1.3577    2.3181   -2.3382 O   0  0  0  0  0  2           0  0  0
   -3.7411    1.5289    5.1790 O   0  0  0  0  0  2           0  0  0
    1.8079    4.3819   -1.4098 O   0  0  0  0  0  2           0  0  0
    1.4518    0.0000    0.0000 N   0  0  0  0  0  3           0  0  0
    3.5392   -0.7614    0.0216 N   0  0  0  0  0  3           0  0  0
   -5.1362   -1.2837    6.6452 N   0  0  0  0  0  3           0  0  0
   -2.0905   -0.0900    5.3244 N   0  0  0  0  0  3           0  0  0
    3.5484    0.6083    0.0369 C   0  0  0  0  0  4           0  0  0
    2.2693   -1.1141    0.0000 C   0  0  0  0  0  4           0  0  0
    2.2632    1.1180    0.0244 C   0  0  0  0  0  4           0  0  0
   -4.4393   -0.4926    7.6239 C   0  0  0  0  0  4           0  0  0
   -1.5976   -0.0351    4.0067 C   0  0  0  0  0  4           0  0  0
   -3.4715    0.4578    7.2438 C   0  0  0  0  0  4           0  0  0
   -0.5425    0.0000    1.3969 C   0  0  0  0  0  4           0  0  0
   -4.7747   -0.6247    8.9803 C   0  0  0  0  0  4           0  0  0
   -2.1202    0.8385    3.0477 C   0  0  0  0  0  4           0  0  0
   -0.5488   -0.8918    3.6575 C   0  0  0  0  0  4           0  0  0
   -2.8296    1.2241    8.2302 C   0  0  0  0  0  4           0  0  0
   -1.5957    0.8531    1.7521 C   0  0  0  0  0  4           0  0  0
   -0.0270   -0.8750    2.3618 C   0  0  0  0  0  4           0  0  0
   -4.1316    0.1434    9.9505 C   0  0  0  0  0  4           0  0  0
   -3.1569    1.0621    9.5763 C   0  0  0  0  0  4           0  0  0
   -5.2920   -3.8348    7.3330 C   0  0  1  0  0  4           0  0  0
    1.6280    3.0314   -1.3797 C   0  0  0  0  0  4           0  0  0
   -3.1187    0.6859    5.8217 C   0  0  0  0  0  4           0  0  0
    1.6604    4.9926   -2.6958 C   0  0  0  0  0  4           0  0  0
    0.0000    0.0000    0.0000 C   0  0  0  0  0  4           0  0  0
    1.7861   -2.5194   -0.0249 C   0  0  0  0  0  4           0  0  0
    1.7753    2.5197    0.0263 C   0  0  0  0  0  4           0  0  0
    2.5243   -3.4048    0.9744 C   0  0  0  0  0  4           0  0  0
    2.0633   -4.8628    0.9879 C   0  0  0  0  0  4           0  0  0
    2.8402   -5.6835    2.0044 C   0  0  0  0  0  4           0  0  0
  1 15  1  0     0  0
  2  6  2  0     0  0
  2  7  2  0     0  0
  2 13  1  0     0  0
  2 30  1  0     0  0
  3 30  1  0     0  0
  4 30  1  0     0  0
  5 30  1  0     0  0
  8 31  2  0     0  0
  9 32  2  0     0  0
 10 31  1  0     0  0
 10 33  1  0     0  0
 11 16  1  0     0  0
 11 17  1  0     0  0
 11 34  1  0     0  0
 12 15  1  0     0  0
 12 16  2  0     0  0
 13 18  1  0     0  0
 14 19  1  0     0  0
 14 32  1  0     0  0
 15 17  2  0     0  0
 16 35  1  0     0  0
 17 36  1  0     0  0
 18 20  1  0     0  0
 18 22  2  0     0  0
 19 23  2  0     0  0
 19 24  1  0     0  0
 20 25  2  0     0  0
 20 32  1  0     0  0
 21 26  2  0     0  0
 21 27  1  0     0  0
 21 34  1  0     0  0
 22 28  1  0     0  0
 23 26  1  0     0  0
 24 27  2  0     0  0
 25 29  1  0     0  0
 28 29  2  0     0  0
 31 36  1  0     0  0
 35 37  1  0     0  0
 37 38  1  0     0  0
 38 39  1  0     0  0
M  END
> <standard_type>
pIC50

> <# Confs.>
25

> <canonical_smiles>
ClC(N=C1CCCC)=C(CC(OC)=O)N1CC2=CC=C(NC(C3=CC=CC=C3NS(=O)(C(F)(F)F)=O)=O)C=C2

> <standard_relation>
=

> <Publication_ID>
nan

> <predicted_activity_value>
5.337242168318426

> <actual_activity_value>
6.301029995663981

> <Compound>
13

> <standard_units>
nM

> hash
2012092047828091155

$$$$
13_
XXILIB    08252103513D 0   0.00000     0.00000

 39 41  0     1  0            999 V2000
    5.0031   -1.4965   -0.0707 Cl  0  0  0  0  0  1           0  0  0
   -6.0034   -1.7264    5.9424 S   0  0  1  0  0  6           0  0  0
   -6.5712   -2.5862    8.3219 F   0  0  0  0  0  1           0  0  0
   -8.2317   -1.6394    7.2658 F   0  0  0  0  0  1           0  0  0
   -7.5718   -3.6390    6.6945 F   0  0  0  0  0  1           0  0  0
   -6.7062   -1.5941    4.6804 O   0  0  0  0  0  2           0  0  0
   -4.7606   -2.4665    6.0358 O   0  0  0  0  0  2           0  0  0
    1.2678   -2.2804   -2.3696 O   0  0  0  0  0  2           0  0  0
   -3.7411    1.5289    5.1790 O   0  0  0  0  0  2           0  0  0
    1.8112   -4.3490   -1.5040 O   0  0  0  0  0  2           0  0  0
    1.4518    0.0000   -0.0000 N   0  0  0  0  0  3           0  0  0
    3.5392    0.7614   -0.0216 N   0  0  0  0  0  3           0  0  0
   -5.7972   -0.1828    6.6578 N   0  0  0  0  0  3           0  0  0
   -2.0905   -0.0900    5.3244 N   0  0  0  0  0  3           0  0  0
    3.5484   -0.6083   -0.0369 C   0  0  0  0  0  4           0  0  0
    2.2693    1.1141    0.0000 C   0  0  0  0  0  4           0  0  0
    2.2632   -1.1180   -0.0244 C   0  0  0  0  0  4           0  0  0
   -4.7598    0.0383    7.6295 C   0  0  0  0  0  4           0  0  0
   -1.5976   -0.0351    4.0067 C   0  0  0  0  0  4           0  0  0
   -3.4715    0.4578    7.2438 C   0  0  0  0  0  4           0  0  0
   -0.5425    0.0000    1.3969 C   0  0  0  0  0  4           0  0  0
   -5.0539   -0.1055    8.9943 C   0  0  0  0  0  4           0  0  0
   -2.1202    0.8385    3.0477 C   0  0  0  0  0  4           0  0  0
   -0.5488   -0.8918    3.6575 C   0  0  0  0  0  4           0  0  0
   -2.4938    0.6824    8.2266 C   0  0  0  0  0  4           0  0  0
   -1.5957    0.8531    1.7521 C   0  0  0  0  0  4           0  0  0
   -0.0270   -0.8750    2.3618 C   0  0  0  0  0  4           0  0  0
   -4.0750    0.1223    9.9612 C   0  0  0  0  0  4           0  0  0
   -2.7958    0.5102    9.5773 C   0  0  0  0  0  4           0  0  0
   -7.1372   -2.4217    7.1018 C   0  0  1  0  0  4           0  0  0
    1.5743   -3.0089   -1.4337 C   0  0  0  0  0  4           0  0  0
   -3.1187    0.6859    5.8217 C   0  0  0  0  0  4           0  0  0
    1.6817   -4.9282   -2.8064 C   0  0  0  0  0  4           0  0  0
    0.0000    0.0000   -0.0000 C   0  0  0  0  0  4           0  0  0
    1.7861    2.5194    0.0249 C   0  0  0  0  0  4           0  0  0
    1.7753   -2.5197   -0.0263 C   0  0  0  0  0  4           0  0  0
    1.6206    3.0511    1.4453 C   0  0  0  0  0  4           0  0  0
    1.1246    4.4954    1.5256 C   0  0  0  0  0  4           0  0  0
    0.9836    4.9568    2.9670 C   0  0  0  0  0  4           0  0  0
  1 15  1  0     0  0
  2  6  2  0     0  0
  2  7  2  0     0  0
  2 13  1  0     0  0
  2 30  1  0     0  0
  3 30  1  0     0  0
  4 30  1  0     0  0
  5 30  1  0     0  0
  8 31  2  0     0  0
  9 32  2  0     0  0
 10 31  1  0     0  0
 10 33  1  0     0  0
 11 16  1  0     0  0
 11 17  1  0     0  0
 11 34  1  0     0  0
 12 15  1  0     0  0
 12 16  2  0     0  0
 13 18  1  0     0  0
 14 19  1  0     0  0
 14 32  1  0     0  0
 15 17  2  0     0  0
 16 35  1  0     0  0
 17 36  1  0     0  0
 18 20  1  0     0  0
 18 22  2  0     0  0
 19 23  2  0     0  0
 19 24  1  0     0  0
 20 25  2  0     0  0
 20 32  1  0     0  0
 21 26  2  0     0  0
 21 27  1  0     0  0
 21 34  1  0     0  0
 22 28  1  0     0  0
 23 26  1  0     0  0
 24 27  2  0     0  0
 25 29  1  0     0  0
 28 29  2  0     0  0
 31 36  1  0     0  0
 35 37  1  0     0  0
 37 38  1  0     0  0
 38 39  1  0     0  0
M  END
> <standard_type>
pIC50

> <# Confs.>
25

> <canonical_smiles>
ClC(N=C1CCCC)=C(CC(OC)=O)N1CC2=CC=C(NC(C3=CC=CC=C3NS(=O)(C(F)(F)F)=O)=O)C=C2

> <standard_relation>
=

> <Publication_ID>
nan

> <predicted_activity_value>
5.337242168318426

> <actual_activity_value>
6.301029995663981

> <Compound>
13

> <standard_units>
nM

> hash
2012092047828091155

$$$$
13_
XXILIB    08252103513D 0   0.00000     0.00000

 39 41  0     1  0            999 V2000
    5.0031    1.4965    0.0707 Cl  0  0  0  0  0  1           0  0  0
   -6.8017   -0.0584    6.0118 S   0  0  1  0  0  6           0  0  0
   -7.6040   -0.8664    8.3415 F   0  0  0  0  0  1           0  0  0
   -8.6450    0.8911    7.5692 F   0  0  0  0  0  1           0  0  0
   -9.0636   -1.0808    6.7347 F   0  0  0  0  0  1           0  0  0
   -7.4101    0.5652    4.8521 O   0  0  0  0  0  2           0  0  0
   -6.0702   -1.3046    5.8973 O   0  0  0  0  0  2           0  0  0
    1.3577    2.3181   -2.3382 O   0  0  0  0  0  2           0  0  0
   -3.7411    1.5289    5.1790 O   0  0  0  0  0  2           0  0  0
    1.8079    4.3819   -1.4098 O   0  0  0  0  0  2           0  0  0
    1.4518    0.0000    0.0000 N   0  0  0  0  0  3           0  0  0
    3.5392   -0.7614    0.0216 N   0  0  0  0  0  3           0  0  0
   -5.8407    1.0861    6.8505 N   0  0  0  0  0  3           0  0  0
   -2.0905   -0.0900    5.3244 N   0  0  0  0  0  3           0  0  0
    3.5484    0.6083    0.0369 C   0  0  0  0  0  4           0  0  0
    2.2693   -1.1141    0.0000 C   0  0  0  0  0  4           0  0  0
    2.2632    1.1180    0.0244 C   0  0  0  0  0  4           0  0  0
   -4.7822    0.6511    7.7222 C   0  0  0  0  0  4           0  0  0
   -1.5976   -0.0351    4.0067 C   0  0  0  0  0  4           0  0  0
   -3.4715    0.4578    7.2438 C   0  0  0  0  0  4           0  0  0
   -0.5425    0.0000    1.3969 C   0  0  0  0  0  4           0  0  0
   -5.0457    0.4764    9.0897 C   0  0  0  0  0  4           0  0  0
   -2.1202    0.8385    3.0477 C   0  0  0  0  0  4           0  0  0
   -0.5488   -0.8918    3.6575 C   0  0  0  0  0  4           0  0  0
   -2.4630    0.0527    8.1332 C   0  0  0  0  0  4           0  0  0
   -1.5957    0.8531    1.7521 C   0  0  0  0  0  4           0  0  0
   -0.0270   -0.8750    2.3618 C   0  0  0  0  0  4           0  0  0
   -4.0354    0.0756    9.9635 C   0  0  0  0  0  4           0  0  0
   -2.7477   -0.1411    9.4848 C   0  0  0  0  0  4           0  0  0
   -8.0754   -0.2856    7.2117 C   0  0  1  0  0  4           0  0  0
    1.6280    3.0314   -1.3797 C   0  0  0  0  0  4           0  0  0
   -3.1187    0.6859    5.8217 C   0  0  0  0  0  4           0  0  0
    1.6604    4.9926   -2.6958 C   0  0  0  0  0  4           0  0  0
    0.0000    0.0000   -0.0000 C   0  0  0  0  0  4           0  0  0
    1.7861   -2.5194   -0.0249 C   0  0  0  0  0  4           0  0  0
    1.7753    2.5197    0.0263 C   0  0  0  0  0  4           0  0  0
    2.5571   -3.3807   -1.0206 C   0  0  0  0  0  4           0  0  0
    2.4738   -2.8995   -2.4697 C   0  0  0  0  0  4           0  0  0
    3.2632   -3.8027   -3.4030 C   0  0  0  0  0  4           0  0  0
  1 15  1  0     0  0
  2  6  2  0     0  0
  2  7  2  0     0  0
  2 13  1  0     0  0
  2 30  1  0     0  0
  3 30  1  0     0  0
  4 30  1  0     0  0
  5 30  1  0     0  0
  8 31  2  0     0  0
  9 32  2  0     0  0
 10 31  1  0     0  0
 10 33  1  0     0  0
 11 16  1  0     0  0
 11 17  1  0     0  0
 11 34  1  0     0  0
 12 15  1  0     0  0
 12 16  2  0     0  0
 13 18  1  0     0  0
 14 19  1  0     0  0
 14 32  1  0     0  0
 15 17  2  0     0  0
 16 35  1  0     0  0
 17 36  1  0     0  0
 18 20  1  0     0  0
 18 22  2  0     0  0
 19 23  2  0     0  0
 19 24  1  0     0  0
 20 25  2  0     0  0
 20 32  1  0     0  0
 21 26  2  0     0  0
 21 27  1  0     0  0
 21 34  1  0     0  0
 22 28  1  0     0  0
 23 26  1  0     0  0
 24 27  2  0     0  0
 25 29  1  0     0  0
 28 29  2  0     0  0
 31 36  1  0     0  0
 35 37  1  0     0  0
 37 38  1  0     0  0
 38 39  1  0     0  0
M  END
> <standard_type>
pIC50

> <# Confs.>
25

> <canonical_smiles>
ClC(N=C1CCCC)=C(CC(OC)=O)N1CC2=CC=C(NC(C3=CC=CC=C3NS(=O)(C(F)(F)F)=O)=O)C=C2

> <standard_relation>
=

> <Publication_ID>
nan

> <predicted_activity_value>
5.337242168318426

> <actual_activity_value>
6.301029995663981

> <Compound>
13

> <standard_units>
nM

> hash
2012092047828091155

$$$$
13_
XXILIB    08252103513D 0   0.00000     0.00000

 39 41  0     1  0            999 V2000
    5.0031    1.4965    0.0707 Cl  0  0  0  0  0  1           0  0  0
   -3.9250   -3.6566    6.7496 S   0  0  1  0  0  6           0  0  0
   -4.0167   -4.0297    9.3140 F   0  0  0  0  0  1           0  0  0
   -5.7743   -4.7251    8.2202 F   0  0  0  0  0  1           0  0  0
   -3.9079   -5.8503    8.1175 F   0  0  0  0  0  1           0  0  0
   -4.4114   -4.3493    5.5717 O   0  0  0  0  0  2           0  0  0
   -2.5198   -3.3368    6.9061 O   0  0  0  0  0  2           0  0  0
    2.2299    2.6153    2.3907 O   0  0  0  0  0  2           0  0  0
   -4.3086   -0.0590    4.9586 O   0  0  0  0  0  2           0  0  0
    0.5947    3.9557    1.4669 O   0  0  0  0  0  2           0  0  0
    1.4518   -0.0000    0.0000 N   0  0  0  0  0  3           0  0  0
    3.5392   -0.7614    0.0216 N   0  0  0  0  0  3           0  0  0
   -4.8594   -2.2461    7.0220 N   0  0  0  0  0  3           0  0  0
   -2.0254   -0.0786    5.3497 N   0  0  0  0  0  3           0  0  0
    3.5484    0.6083    0.0369 C   0  0  0  0  0  4           0  0  0
    2.2693   -1.1141    0.0000 C   0  0  0  0  0  4           0  0  0
    2.2632    1.1180    0.0244 C   0  0  0  0  0  4           0  0  0
   -4.3278   -1.1571    7.7973 C   0  0  0  0  0  4           0  0  0
   -1.5639   -0.0522    4.0198 C   0  0  0  0  0  4           0  0  0
   -3.6057   -0.1101    7.1916 C   0  0  0  0  0  4           0  0  0
   -0.5425   -0.0000    1.3969 C   0  0  0  0  0  4           0  0  0
   -4.5872   -1.1034    9.1756 C   0  0  0  0  0  4           0  0  0
   -2.4345   -0.0243    2.9256 C   0  0  0  0  0  4           0  0  0
   -0.1828   -0.0560    3.7996 C   0  0  0  0  0  4           0  0  0
   -3.1221    0.9447    7.9826 C   0  0  0  0  0  4           0  0  0
   -1.9251    0.0000    1.6242 C   0  0  0  0  0  4           0  0  0
    0.3231   -0.0319    2.4977 C   0  0  0  0  0  4           0  0  0
   -4.1031   -0.0495    9.9503 C   0  0  0  0  0  4           0  0  0
   -3.3672    0.9697    9.3554 C   0  0  0  0  0  4           0  0  0
   -4.4265   -4.5988    8.1546 C   0  0  1  0  0  4           0  0  0
    1.5743    3.0089    1.4337 C   0  0  0  0  0  4           0  0  0
   -3.3525   -0.0803    5.7309 C   0  0  0  0  0  4           0  0  0
    0.3322    4.5229    2.7545 C   0  0  0  0  0  4           0  0  0
    0.0000    0.0000    0.0000 C   0  0  0  0  0  4           0  0  0
    1.7861   -2.5194   -0.0249 C   0  0  0  0  0  4           0  0  0
    1.7753    2.5197    0.0263 C   0  0  0  0  0  4           0  0  0
    2.5243   -3.4048    0.9744 C   0  0  0  0  0  4           0  0  0
    2.3931   -2.9587    2.4312 C   0  0  0  0  0  4           0  0  0
    3.1517   -3.8846    3.3680 C   0  0  0  0  0  4           0  0  0
  1 15  1  0     0  0
  2  6  2  0     0  0
  2  7  2  0     0  0
  2 13  1  0     0  0
  2 30  1  0     0  0
  3 30  1  0     0  0
  4 30  1  0     0  0
  5 30  1  0     0  0
  8 31  2  0     0  0
  9 32  2  0     0  0
 10 31  1  0     0  0
 10 33  1  0     0  0
 11 16  1  0     0  0
 11 17  1  0     0  0
 11 34  1  0     0  0
 12 15  1  0     0  0
 12 16  2  0     0  0
 13 18  1  0     0  0
 14 19  1  0     0  0
 14 32  1  0     0  0
 15 17  2  0     0  0
 16 35  1  0     0  0
 17 36  1  0     0  0
 18 20  1  0     0  0
 18 22  2  0     0  0
 19 23  2  0     0  0
 19 24  1  0     0  0
 20 25  2  0     0  0
 20 32  1  0     0  0
 21 26  2  0     0  0
 21 27  1  0     0  0
 21 34  1  0     0  0
 22 28  1  0     0  0
 23 26  1  0     0  0
 24 27  2  0     0  0
 25 29  1  0     0  0
 28 29  2  0     0  0
 31 36  1  0     0  0
 35 37  1  0     0  0
 37 38  1  0     0  0
 38 39  1  0     0  0
M  END
> <standard_type>
pIC50

> <# Confs.>
25

> <canonical_smiles>
ClC(N=C1CCCC)=C(CC(OC)=O)N1CC2=CC=C(NC(C3=CC=CC=C3NS(=O)(C(F)(F)F)=O)=O)C=C2

> <standard_relation>
=

> <Publication_ID>
nan

> <predicted_activity_value>
5.337242168318426

> <actual_activity_value>
6.301029995663981

> <Compound>
13

> <standard_units>
nM

> hash
2012092047828091155

$$$$
13_
XXILIB    08252103513D 0   0.00000     0.00000

 39 41  0     1  0            999 V2000
    5.0031   -1.4965   -0.0707 Cl  0  0  0  0  0  1           0  0  0
   -3.9250   -3.6566    6.7496 S   0  0  1  0  0  6           0  0  0
   -4.0167   -4.0297    9.3140 F   0  0  0  0  0  1           0  0  0
   -5.7743   -4.7251    8.2202 F   0  0  0  0  0  1           0  0  0
   -3.9079   -5.8503    8.1175 F   0  0  0  0  0  1           0  0  0
   -4.4114   -4.3493    5.5717 O   0  0  0  0  0  2           0  0  0
   -2.5198   -3.3368    6.9061 O   0  0  0  0  0  2           0  0  0
    2.3197   -2.6529    2.3171 O   0  0  0  0  0  2           0  0  0
   -4.3086   -0.0590    4.9586 O   0  0  0  0  0  2           0  0  0
    0.6100   -3.9349    1.4470 O   0  0  0  0  0  2           0  0  0
    1.4518    0.0000    0.0000 N   0  0  0  0  0  3           0  0  0
    3.5392    0.7614   -0.0216 N   0  0  0  0  0  3           0  0  0
   -4.8594   -2.2461    7.0220 N   0  0  0  0  0  3           0  0  0
   -2.0254   -0.0786    5.3497 N   0  0  0  0  0  3           0  0  0
    3.5484   -0.6083   -0.0369 C   0  0  0  0  0  4           0  0  0
    2.2693    1.1141    0.0000 C   0  0  0  0  0  4           0  0  0
    2.2632   -1.1180   -0.0244 C   0  0  0  0  0  4           0  0  0
   -4.3278   -1.1571    7.7973 C   0  0  0  0  0  4           0  0  0
   -1.5639   -0.0522    4.0198 C   0  0  0  0  0  4           0  0  0
   -3.6057   -0.1101    7.1916 C   0  0  0  0  0  4           0  0  0
   -0.5425   -0.0000    1.3969 C   0  0  0  0  0  4           0  0  0
   -4.5872   -1.1034    9.1756 C   0  0  0  0  0  4           0  0  0
   -2.4345   -0.0243    2.9256 C   0  0  0  0  0  4           0  0  0
   -0.1828   -0.0560    3.7996 C   0  0  0  0  0  4           0  0  0
   -3.1221    0.9447    7.9826 C   0  0  0  0  0  4           0  0  0
   -1.9251    0.0000    1.6242 C   0  0  0  0  0  4           0  0  0
    0.3231   -0.0319    2.4977 C   0  0  0  0  0  4           0  0  0
   -4.1031   -0.0495    9.9503 C   0  0  0  0  0  4           0  0  0
   -3.3672    0.9697    9.3554 C   0  0  0  0  0  4           0  0  0
   -4.4265   -4.5988    8.1546 C   0  0  1  0  0  4           0  0  0
    1.6280   -3.0314    1.3797 C   0  0  0  0  0  4           0  0  0
   -3.3525   -0.0803    5.7309 C   0  0  0  0  0  4           0  0  0
    0.3509   -4.4724    2.7479 C   0  0  0  0  0  4           0  0  0
    0.0000    0.0000    0.0000 C   0  0  0  0  0  4           0  0  0
    1.7861    2.5194    0.0249 C   0  0  0  0  0  4           0  0  0
    1.7753   -2.5197   -0.0263 C   0  0  0  0  0  4           0  0  0
    2.5243    3.4048   -0.9744 C   0  0  0  0  0  4           0  0  0
    2.3931    2.9587   -2.4312 C   0  0  0  0  0  4           0  0  0
    3.1517    3.8846   -3.3680 C   0  0  0  0  0  4           0  0  0
  1 15  1  0     0  0
  2  6  2  0     0  0
  2  7  2  0     0  0
  2 13  1  0     0  0
  2 30  1  0     0  0
  3 30  1  0     0  0
  4 30  1  0     0  0
  5 30  1  0     0  0
  8 31  2  0     0  0
  9 32  2  0     0  0
 10 31  1  0     0  0
 10 33  1  0     0  0
 11 16  1  0     0  0
 11 17  1  0     0  0
 11 34  1  0     0  0
 12 15  1  0     0  0
 12 16  2  0     0  0
 13 18  1  0     0  0
 14 19  1  0     0  0
 14 32  1  0     0  0
 15 17  2  0     0  0
 16 35  1  0     0  0
 17 36  1  0     0  0
 18 20  1  0     0  0
 18 22  2  0     0  0
 19 23  2  0     0  0
 19 24  1  0     0  0
 20 25  2  0     0  0
 20 32  1  0     0  0
 21 26  2  0     0  0
 21 27  1  0     0  0
 21 34  1  0     0  0
 22 28  1  0     0  0
 23 26  1  0     0  0
 24 27  2  0     0  0
 25 29  1  0     0  0
 28 29  2  0     0  0
 31 36  1  0     0  0
 35 37  1  0     0  0
 37 38  1  0     0  0
 38 39  1  0     0  0
M  END
> <standard_type>
pIC50

> <# Confs.>
25

> <canonical_smiles>
ClC(N=C1CCCC)=C(CC(OC)=O)N1CC2=CC=C(NC(C3=CC=CC=C3NS(=O)(C(F)(F)F)=O)=O)C=C2

> <standard_relation>
=

> <Publication_ID>
nan

> <predicted_activity_value>
5.337242168318426

> <actual_activity_value>
6.301029995663981

> <Compound>
13

> <standard_units>
nM

> hash
2012092047828091155

$$$$
13_
XXILIB    08252103513D 0   0.00000     0.00000

 39 41  0     1  0            999 V2000
    5.0031   -1.4965   -0.0707 Cl  0  0  0  0  0  1           0  0  0
   -4.5069   -2.7963    6.1420 S   0  0  1  0  0  6           0  0  0
   -4.8507   -3.5826    8.5890 F   0  0  0  0  0  1           0  0  0
   -6.6371   -3.6688    7.3359 F   0  0  0  0  0  1           0  0  0
   -5.0502   -5.1438    7.0787 F   0  0  0  0  0  1           0  0  0
   -5.0480   -3.1469    4.8427 O   0  0  0  0  0  2           0  0  0
   -3.0799   -2.8283    6.3948 O   0  0  0  0  0  2           0  0  0
    1.2678   -2.2804   -2.3696 O   0  0  0  0  0  2           0  0  0
   -3.7411    1.5289    5.1790 O   0  0  0  0  0  2           0  0  0
    1.8112   -4.3490   -1.5040 O   0  0  0  0  0  2           0  0  0
    1.4518    0.0000   -0.0000 N   0  0  0  0  0  3           0  0  0
    3.5392    0.7614   -0.0216 N   0  0  0  0  0  3           0  0  0
   -5.1362   -1.2837    6.6452 N   0  0  0  0  0  3           0  0  0
   -2.0905   -0.0900    5.3244 N   0  0  0  0  0  3           0  0  0
    3.5484   -0.6083   -0.0369 C   0  0  0  0  0  4           0  0  0
    2.2693    1.1141    0.0000 C   0  0  0  0  0  4           0  0  0
    2.2632   -1.1180   -0.0244 C   0  0  0  0  0  4           0  0  0
   -4.4393   -0.4926    7.6239 C   0  0  0  0  0  4           0  0  0
   -1.5976   -0.0351    4.0067 C   0  0  0  0  0  4           0  0  0
   -3.4715    0.4578    7.2438 C   0  0  0  0  0  4           0  0  0
   -0.5425    0.0000    1.3969 C   0  0  0  0  0  4           0  0  0
   -4.7747   -0.6247    8.9803 C   0  0  0  0  0  4           0  0  0
   -2.1202    0.8385    3.0477 C   0  0  0  0  0  4           0  0  0
   -0.5488   -0.8918    3.6575 C   0  0  0  0  0  4           0  0  0
   -2.8296    1.2241    8.2302 C   0  0  0  0  0  4           0  0  0
   -1.5957    0.8531    1.7521 C   0  0  0  0  0  4           0  0  0
   -0.0270   -0.8750    2.3618 C   0  0  0  0  0  4           0  0  0
   -4.1316    0.1434    9.9505 C   0  0  0  0  0  4           0  0  0
   -3.1569    1.0621    9.5763 C   0  0  0  0  0  4           0  0  0
   -5.2920   -3.8348    7.3330 C   0  0  1  0  0  4           0  0  0
    1.5743   -3.0089   -1.4337 C   0  0  0  0  0  4           0  0  0
   -3.1187    0.6859    5.8217 C   0  0  0  0  0  4           0  0  0
    1.6817   -4.9282   -2.8064 C   0  0  0  0  0  4           0  0  0
    0.0000    0.0000    0.0000 C   0  0  0  0  0  4           0  0  0
    1.7861    2.5194    0.0249 C   0  0  0  0  0  4           0  0  0
    1.7753   -2.5197   -0.0263 C   0  0  0  0  0  4           0  0  0
    1.5741    3.0852   -1.3760 C   0  0  0  0  0  4           0  0  0
    1.0763    4.5308   -1.4050 C   0  0  0  0  0  4           0  0  0
    0.8881    5.0269   -2.8294 C   0  0  0  0  0  4           0  0  0
  1 15  1  0     0  0
  2  6  2  0     0  0
  2  7  2  0     0  0
  2 13  1  0     0  0
  2 30  1  0     0  0
  3 30  1  0     0  0
  4 30  1  0     0  0
  5 30  1  0     0  0
  8 31  2  0     0  0
  9 32  2  0     0  0
 10 31  1  0     0  0
 10 33  1  0     0  0
 11 16  1  0     0  0
 11 17  1  0     0  0
 11 34  1  0     0  0
 12 15  1  0     0  0
 12 16  2  0     0  0
 13 18  1  0     0  0
 14 19  1  0     0  0
 14 32  1  0     0  0
 15 17  2  0     0  0
 16 35  1  0     0  0
 17 36  1  0     0  0
 18 20  1  0     0  0
 18 22  2  0     0  0
 19 23  2  0     0  0
 19 24  1  0     0  0
 20 25  2  0     0  0
 20 32  1  0     0  0
 21 26  2  0     0  0
 21 27  1  0     0  0
 21 34  1  0     0  0
 22 28  1  0     0  0
 23 26  1  0     0  0
 24 27  2  0     0  0
 25 29  1  0     0  0
 28 29  2  0     0  0
 31 36  1  0     0  0
 35 37  1  0     0  0
 37 38  1  0     0  0
 38 39  1  0     0  0
M  END
> <standard_type>
pIC50

> <# Confs.>
25

> <canonical_smiles>
ClC(N=C1CCCC)=C(CC(OC)=O)N1CC2=CC=C(NC(C3=CC=CC=C3NS(=O)(C(F)(F)F)=O)=O)C=C2

> <standard_relation>
=

> <Publication_ID>
nan

> <predicted_activity_value>
5.337242168318426

> <actual_activity_value>
6.301029995663981

> <Compound>
13

> <standard_units>
nM

> hash
2012092047828091155

$$$$
20_
XXILIB    08252103513D 0   0.00000     0.00000

 28 30  0     1  0            999 V2000
    5.0074    1.4914    0.0122 Cl  0  0  0  0  0  1           0  0  0
   -4.6018   -1.0254    3.9373 O   0  0  0  0  0  2           0  0  0
   -5.2861    0.9787    4.7809 O   0  0  0  0  0  2           0  0  0
    1.6390    2.9308    1.3457 O   0  0  0  0  0  2           0  0  0
    1.4523    0.0000    0.0000 N   0  0  0  0  0  3           0  0  0
    3.5393   -0.7630    0.0025 N   0  0  0  0  0  3           0  0  0
    3.5500    0.6068    0.0019 C   0  0  0  0  0  4           0  0  0
    2.2690   -1.1150    0.0000 C   0  0  0  0  0  4           0  0  0
    2.2653    1.1171   -0.0044 C   0  0  0  0  0  4           0  0  0
   -2.0446   -0.0040    5.4234 C   0  0  0  0  0  4           0  0  0
   -1.5306   -0.0017    4.0471 C   0  0  0  0  0  4           0  0  0
   -3.4195   -0.0176    5.7457 C   0  0  0  0  0  4           0  0  0
   -0.5425    0.0000    1.3966 C   0  0  0  0  0  4           0  0  0
   -1.1355    0.0384    6.4998 C   0  0  0  0  0  4           0  0  0
   -1.2915    1.2039    3.3707 C   0  0  0  0  0  4           0  0  0
   -1.2647   -1.2060    3.3790 C   0  0  0  0  0  4           0  0  0
   -3.8595    0.0384    7.0761 C   0  0  0  0  0  4           0  0  0
   -0.8009    1.2048    2.0617 C   0  0  0  0  0  4           0  0  0
   -0.7743   -1.2055    2.0702 C   0  0  0  0  0  4           0  0  0
   -1.5732    0.0806    7.8271 C   0  0  0  0  0  4           0  0  0
   -2.9337    0.0847    8.1141 C   0  0  0  0  0  4           0  0  0
   -4.4774   -0.1029    4.7248 C   0  0  0  0  0  4           0  0  0
    1.7796    2.5134   -0.0058 C   0  0  0  0  0  4           0  0  0
    0.0000    0.0000    0.0000 C   0  0  0  0  0  4           0  0  0
    1.7859   -2.5228    0.0017 C   0  0  0  0  0  4           0  0  0
    2.5394   -3.3969   -0.9956 C   0  0  0  0  0  4           0  0  0
    2.4278   -2.9321   -2.4480 C   0  0  0  0  0  4           0  0  0
    3.1904   -3.8258   -3.4146 C   0  0  0  0  0  4           0  0  0
  1  7  1  0     0  0
  2 22  2  0     0  0
  3 22  1  0     0  0
  4 23  1  0     0  0
  5  8  1  0     0  0
  5  9  1  0     0  0
  5 24  1  0     0  0
  6  7  1  0     0  0
  6  8  2  0     0  0
  7  9  2  0     0  0
  8 25  1  0     0  0
  9 23  1  0     0  0
 10 11  1  0     0  0
 10 12  1  0     0  0
 10 14  2  0     0  0
 11 15  2  0     0  0
 11 16  1  0     0  0
 12 17  2  0     0  0
 12 22  1  0     0  0
 13 18  2  0     0  0
 13 19  1  0     0  0
 13 24  1  0     0  0
 14 20  1  0     0  0
 15 18  1  0     0  0
 16 19  2  0     0  0
 17 21  1  0     0  0
 20 21  2  0     0  0
 25 26  1  0     0  0
 26 27  1  0     0  0
 27 28  1  0     0  0
M  END
> <standard_type>
pIC50

> <# Confs.>
25

> <canonical_smiles>
ClC(N=C1CCCC)=C(CO)N1CC2=CC=C(C3=CC=CC=C3C(O)=O)C=C2

> <standard_relation>
=

> <Publication_ID>
nan

> <predicted_activity_value>
5.0

> <actual_activity_value>
4.958607314841775

> <Compound>
20

> <standard_units>
nM

> hash
4469256553819631414

$$$$
20_
XXILIB    08252103513D 0   0.00000     0.00000

 28 30  0     1  0            999 V2000
    5.0074    1.4914    0.0122 Cl  0  0  0  0  0  1           0  0  0
   -4.6018   -1.0254    3.9373 O   0  0  0  0  0  2           0  0  0
   -5.2861    0.9787    4.7809 O   0  0  0  0  0  2           0  0  0
    1.6390    2.9308    1.3457 O   0  0  0  0  0  2           0  0  0
    1.4523    0.0000    0.0000 N   0  0  0  0  0  3           0  0  0
    3.5393   -0.7630    0.0025 N   0  0  0  0  0  3           0  0  0
    3.5500    0.6068    0.0019 C   0  0  0  0  0  4           0  0  0
    2.2690   -1.1150    0.0000 C   0  0  0  0  0  4           0  0  0
    2.2653    1.1171   -0.0044 C   0  0  0  0  0  4           0  0  0
   -2.0446   -0.0040    5.4234 C   0  0  0  0  0  4           0  0  0
   -1.5306   -0.0017    4.0471 C   0  0  0  0  0  4           0  0  0
   -3.4195   -0.0176    5.7457 C   0  0  0  0  0  4           0  0  0
   -0.5425    0.0000    1.3966 C   0  0  0  0  0  4           0  0  0
   -1.1355    0.0384    6.4998 C   0  0  0  0  0  4           0  0  0
   -1.2915    1.2039    3.3707 C   0  0  0  0  0  4           0  0  0
   -1.2647   -1.2060    3.3790 C   0  0  0  0  0  4           0  0  0
   -3.8595    0.0384    7.0761 C   0  0  0  0  0  4           0  0  0
   -0.8009    1.2048    2.0617 C   0  0  0  0  0  4           0  0  0
   -0.7743   -1.2055    2.0702 C   0  0  0  0  0  4           0  0  0
   -1.5732    0.0806    7.8271 C   0  0  0  0  0  4           0  0  0
   -2.9337    0.0847    8.1141 C   0  0  0  0  0  4           0  0  0
   -4.4774   -0.1029    4.7248 C   0  0  0  0  0  4           0  0  0
    1.7796    2.5134   -0.0058 C   0  0  0  0  0  4           0  0  0
    0.0000    0.0000    0.0000 C   0  0  0  0  0  4           0  0  0
    1.7859   -2.5228    0.0017 C   0  0  0  0  0  4           0  0  0
    2.5394   -3.3969   -0.9956 C   0  0  0  0  0  4           0  0  0
    2.0766   -4.8538   -1.0289 C   0  0  0  0  0  4           0  0  0
    2.8486   -5.6962   -2.0335 C   0  0  0  0  0  4           0  0  0
  1  7  1  0     0  0
  2 22  2  0     0  0
  3 22  1  0     0  0
  4 23  1  0     0  0
  5  8  1  0     0  0
  5  9  1  0     0  0
  5 24  1  0     0  0
  6  7  1  0     0  0
  6  8  2  0     0  0
  7  9  2  0     0  0
  8 25  1  0     0  0
  9 23  1  0     0  0
 10 11  1  0     0  0
 10 12  1  0     0  0
 10 14  2  0     0  0
 11 15  2  0     0  0
 11 16  1  0     0  0
 12 17  2  0     0  0
 12 22  1  0     0  0
 13 18  2  0     0  0
 13 19  1  0     0  0
 13 24  1  0     0  0
 14 20  1  0     0  0
 15 18  1  0     0  0
 16 19  2  0     0  0
 17 21  1  0     0  0
 20 21  2  0     0  0
 25 26  1  0     0  0
 26 27  1  0     0  0
 27 28  1  0     0  0
M  END
> <standard_type>
pIC50

> <# Confs.>
25

> <canonical_smiles>
ClC(N=C1CCCC)=C(CO)N1CC2=CC=C(C3=CC=CC=C3C(O)=O)C=C2

> <standard_relation>
=

> <Publication_ID>
nan

> <predicted_activity_value>
5.0

> <actual_activity_value>
4.958607314841775

> <Compound>
20

> <standard_units>
nM

> hash
4469256553819631414

$$$$
20_
XXILIB    08252103513D 0   0.00000     0.00000

 28 30  0     1  0            999 V2000
    5.0074   -1.4914   -0.0122 Cl  0  0  0  0  0  1           0  0  0
   -4.5330    1.3774    3.8855 O   0  0  0  0  0  2           0  0  0
   -3.8155    3.0509    5.2570 O   0  0  0  0  0  2           0  0  0
    1.6390   -2.9308   -1.3457 O   0  0  0  0  0  2           0  0  0
    1.4523    0.0000    0.0000 N   0  0  0  0  0  3           0  0  0
    3.5393    0.7630   -0.0025 N   0  0  0  0  0  3           0  0  0
    3.5500   -0.6068   -0.0019 C   0  0  0  0  0  4           0  0  0
    2.2690    1.1150   -0.0000 C   0  0  0  0  0  4           0  0  0
    2.2653   -1.1171    0.0044 C   0  0  0  0  0  4           0  0  0
   -2.1342    0.0438    5.3886 C   0  0  0  0  0  4           0  0  0
   -1.5911    0.0286    4.0236 C   0  0  0  0  0  4           0  0  0
   -3.2008    0.8743    5.7976 C   0  0  0  0  0  4           0  0  0
   -0.5425    0.0000    1.3966 C   0  0  0  0  0  4           0  0  0
   -1.5571   -0.7866    6.3705 C   0  0  0  0  0  4           0  0  0
   -2.1116   -0.8395    3.0522 C   0  0  0  0  0  4           0  0  0
   -0.5409    0.8844    3.6602 C   0  0  0  0  0  4           0  0  0
   -3.6452    0.8923    7.1276 C   0  0  0  0  0  4           0  0  0
   -1.5950   -0.8519    1.7533 C   0  0  0  0  0  4           0  0  0
   -0.0240    0.8721    2.3617 C   0  0  0  0  0  4           0  0  0
   -2.0085   -0.7791    7.6938 C   0  0  0  0  0  4           0  0  0
   -3.0486    0.0626    8.0722 C   0  0  0  0  0  4           0  0  0
   -3.9232    1.7605    4.8694 C   0  0  0  0  0  4           0  0  0
    1.7796   -2.5134    0.0058 C   0  0  0  0  0  4           0  0  0
   -0.0000    0.0000    0.0000 C   0  0  0  0  0  4           0  0  0
    1.7859    2.5228   -0.0017 C   0  0  0  0  0  4           0  0  0
    2.5417    3.3953   -0.9988 C   0  0  0  0  0  4           0  0  0
    2.4334    2.9280   -2.4506 C   0  0  0  0  0  4           0  0  0
    3.1982    3.8200   -3.4171 C   0  0  0  0  0  4           0  0  0
  1  7  1  0     0  0
  2 22  2  0     0  0
  3 22  1  0     0  0
  4 23  1  0     0  0
  5  8  1  0     0  0
  5  9  1  0     0  0
  5 24  1  0     0  0
  6  7  1  0     0  0
  6  8  2  0     0  0
  7  9  2  0     0  0
  8 25  1  0     0  0
  9 23  1  0     0  0
 10 11  1  0     0  0
 10 12  1  0     0  0
 10 14  2  0     0  0
 11 15  2  0     0  0
 11 16  1  0     0  0
 12 17  2  0     0  0
 12 22  1  0     0  0
 13 18  2  0     0  0
 13 19  1  0     0  0
 13 24  1  0     0  0
 14 20  1  0     0  0
 15 18  1  0     0  0
 16 19  2  0     0  0
 17 21  1  0     0  0
 20 21  2  0     0  0
 25 26  1  0     0  0
 26 27  1  0     0  0
 27 28  1  0     0  0
M  END
> <standard_type>
pIC50

> <# Confs.>
25

> <canonical_smiles>
ClC(N=C1CCCC)=C(CO)N1CC2=CC=C(C3=CC=CC=C3C(O)=O)C=C2

> <standard_relation>
=

> <Publication_ID>
nan

> <predicted_activity_value>
5.0

> <actual_activity_value>
4.958607314841775

> <Compound>
20

> <standard_units>
nM

> hash
4469256553819631414

$$$$
20_
XXILIB    08252103513D 0   0.00000     0.00000

 28 30  0     1  0            999 V2000
    5.0074   -1.4914   -0.0122 Cl  0  0  0  0  0  1           0  0  0
   -0.4362   -2.5833    5.4690 O   0  0  0  0  0  2           0  0  0
    0.4951   -1.3412    7.1382 O   0  0  0  0  0  2           0  0  0
    1.6390   -2.9308   -1.3457 O   0  0  0  0  0  2           0  0  0
    1.4523    0.0000    0.0000 N   0  0  0  0  0  3           0  0  0
    3.5393    0.7630   -0.0025 N   0  0  0  0  0  3           0  0  0
    3.5500   -0.6068   -0.0019 C   0  0  0  0  0  4           0  0  0
    2.2690    1.1150   -0.0000 C   0  0  0  0  0  4           0  0  0
    2.2653   -1.1171    0.0044 C   0  0  0  0  0  4           0  0  0
   -2.1342    0.0438    5.3886 C   0  0  0  0  0  4           0  0  0
   -1.5911    0.0286    4.0236 C   0  0  0  0  0  4           0  0  0
   -1.6465   -0.7703    6.4344 C   0  0  0  0  0  4           0  0  0
   -0.5425    0.0000    1.3966 C   0  0  0  0  0  4           0  0  0
   -3.2217    0.8886    5.6894 C   0  0  0  0  0  4           0  0  0
   -2.1116   -0.8395    3.0522 C   0  0  0  0  0  4           0  0  0
   -0.5409    0.8844    3.6602 C   0  0  0  0  0  4           0  0  0
   -2.2373   -0.7592    7.7063 C   0  0  0  0  0  4           0  0  0
   -1.5950   -0.8519    1.7533 C   0  0  0  0  0  4           0  0  0
   -0.0240    0.8721    2.3617 C   0  0  0  0  0  4           0  0  0
   -3.8028    0.9102    6.9610 C   0  0  0  0  0  4           0  0  0
   -3.3133    0.0840    7.9666 C   0  0  0  0  0  4           0  0  0
   -0.4908   -1.6687    6.2735 C   0  0  0  0  0  4           0  0  0
    1.7796   -2.5134    0.0058 C   0  0  0  0  0  4           0  0  0
   -0.0000    0.0000    0.0000 C   0  0  0  0  0  4           0  0  0
    1.7859    2.5228   -0.0017 C   0  0  0  0  0  4           0  0  0
    2.5417    3.3953   -0.9988 C   0  0  0  0  0  4           0  0  0
    2.4334    2.9280   -2.4506 C   0  0  0  0  0  4           0  0  0
    3.1982    3.8200   -3.4171 C   0  0  0  0  0  4           0  0  0
  1  7  1  0     0  0
  2 22  2  0     0  0
  3 22  1  0     0  0
  4 23  1  0     0  0
  5  8  1  0     0  0
  5  9  1  0     0  0
  5 24  1  0     0  0
  6  7  1  0     0  0
  6  8  2  0     0  0
  7  9  2  0     0  0
  8 25  1  0     0  0
  9 23  1  0     0  0
 10 11  1  0     0  0
 10 12  1  0     0  0
 10 14  2  0     0  0
 11 15  2  0     0  0
 11 16  1  0     0  0
 12 17  2  0     0  0
 12 22  1  0     0  0
 13 18  2  0     0  0
 13 19  1  0     0  0
 13 24  1  0     0  0
 14 20  1  0     0  0
 15 18  1  0     0  0
 16 19  2  0     0  0
 17 21  1  0     0  0
 20 21  2  0     0  0
 25 26  1  0     0  0
 26 27  1  0     0  0
 27 28  1  0     0  0
M  END
> <standard_type>
pIC50

> <# Confs.>
25

> <canonical_smiles>
ClC(N=C1CCCC)=C(CO)N1CC2=CC=C(C3=CC=CC=C3C(O)=O)C=C2

> <standard_relation>
=

> <Publication_ID>
nan

> <predicted_activity_value>
5.0

> <actual_activity_value>
4.958607314841775

> <Compound>
20

> <standard_units>
nM

> hash
4469256553819631414

$$$$
20_
XXILIB    08252103513D 0   0.00000     0.00000

 28 30  0     1  0            999 V2000
    5.0074   -1.4914   -0.0122 Cl  0  0  0  0  0  1           0  0  0
   -3.4032    2.6589    4.2298 O   0  0  0  0  0  2           0  0  0
   -5.2361    1.4422    4.8267 O   0  0  0  0  0  2           0  0  0
    1.6390   -2.9308   -1.3457 O   0  0  0  0  0  2           0  0  0
    1.4523    0.0000    0.0000 N   0  0  0  0  0  3           0  0  0
    3.5393    0.7630   -0.0025 N   0  0  0  0  0  3           0  0  0
    3.5500   -0.6068   -0.0019 C   0  0  0  0  0  4           0  0  0
    2.2690    1.1150   -0.0000 C   0  0  0  0  0  4           0  0  0
    2.2653   -1.1171    0.0044 C   0  0  0  0  0  4           0  0  0
   -2.1342    0.0438    5.3886 C   0  0  0  0  0  4           0  0  0
   -1.5911    0.0286    4.0236 C   0  0  0  0  0  4           0  0  0
   -3.2008    0.8743    5.7976 C   0  0  0  0  0  4           0  0  0
   -0.5425    0.0000    1.3966 C   0  0  0  0  0  4           0  0  0
   -1.5571   -0.7866    6.3705 C   0  0  0  0  0  4           0  0  0
   -2.1116   -0.8395    3.0522 C   0  0  0  0  0  4           0  0  0
   -0.5409    0.8844    3.6602 C   0  0  0  0  0  4           0  0  0
   -3.6452    0.8923    7.1276 C   0  0  0  0  0  4           0  0  0
   -1.5950   -0.8519    1.7533 C   0  0  0  0  0  4           0  0  0
   -0.0240    0.8721    2.3617 C   0  0  0  0  0  4           0  0  0
   -2.0085   -0.7791    7.6938 C   0  0  0  0  0  4           0  0  0
   -3.0486    0.0626    8.0722 C   0  0  0  0  0  4           0  0  0
   -3.9232    1.7605    4.8694 C   0  0  0  0  0  4           0  0  0
    1.7796   -2.5134    0.0058 C   0  0  0  0  0  4           0  0  0
   -0.0000    0.0000    0.0000 C   0  0  0  0  0  4           0  0  0
    1.7859    2.5228   -0.0017 C   0  0  0  0  0  4           0  0  0
    2.5417    3.3953   -0.9988 C   0  0  0  0  0  4           0  0  0
    2.4334    2.9280   -2.4506 C   0  0  0  0  0  4           0  0  0
    3.1982    3.8200   -3.4171 C   0  0  0  0  0  4           0  0  0
  1  7  1  0     0  0
  2 22  2  0     0  0
  3 22  1  0     0  0
  4 23  1  0     0  0
  5  8  1  0     0  0
  5  9  1  0     0  0
  5 24  1  0     0  0
  6  7  1  0     0  0
  6  8  2  0     0  0
  7  9  2  0     0  0
  8 25  1  0     0  0
  9 23  1  0     0  0
 10 11  1  0     0  0
 10 12  1  0     0  0
 10 14  2  0     0  0
 11 15  2  0     0  0
 11 16  1  0     0  0
 12 17  2  0     0  0
 12 22  1  0     0  0
 13 18  2  0     0  0
 13 19  1  0     0  0
 13 24  1  0     0  0
 14 20  1  0     0  0
 15 18  1  0     0  0
 16 19  2  0     0  0
 17 21  1  0     0  0
 20 21  2  0     0  0
 25 26  1  0     0  0
 26 27  1  0     0  0
 27 28  1  0     0  0
M  END
> <standard_type>
pIC50

> <# Confs.>
25

> <canonical_smiles>
ClC(N=C1CCCC)=C(CO)N1CC2=CC=C(C3=CC=CC=C3C(O)=O)C=C2

> <standard_relation>
=

> <Publication_ID>
nan

> <predicted_activity_value>
5.0

> <actual_activity_value>
4.958607314841775

> <Compound>
20

> <standard_units>
nM

> hash
4469256553819631414

$$$$
20_
XXILIB    08252103513D 0   0.00000     0.00000

 28 30  0     1  0            999 V2000
    5.0074    1.4914    0.0122 Cl  0  0  0  0  0  1           0  0  0
   -4.6431    0.7138    3.8347 O   0  0  0  0  0  2           0  0  0
   -5.2363   -1.2057    4.9118 O   0  0  0  0  0  2           0  0  0
    1.6390    2.9308    1.3457 O   0  0  0  0  0  2           0  0  0
    1.4523    0.0000    0.0000 N   0  0  0  0  0  3           0  0  0
    3.5393   -0.7630    0.0025 N   0  0  0  0  0  3           0  0  0
    3.5500    0.6068    0.0019 C   0  0  0  0  0  4           0  0  0
    2.2690   -1.1150    0.0000 C   0  0  0  0  0  4           0  0  0
    2.2653    1.1171   -0.0044 C   0  0  0  0  0  4           0  0  0
   -2.0446   -0.0040    5.4234 C   0  0  0  0  0  4           0  0  0
   -1.5306   -0.0017    4.0471 C   0  0  0  0  0  4           0  0  0
   -3.4195   -0.0176    5.7457 C   0  0  0  0  0  4           0  0  0
   -0.5425    0.0000    1.3966 C   0  0  0  0  0  4           0  0  0
   -1.1355    0.0384    6.4998 C   0  0  0  0  0  4           0  0  0
   -1.2915    1.2039    3.3707 C   0  0  0  0  0  4           0  0  0
   -1.2647   -1.2060    3.3790 C   0  0  0  0  0  4           0  0  0
   -3.8595    0.0384    7.0761 C   0  0  0  0  0  4           0  0  0
   -0.8009    1.2048    2.0617 C   0  0  0  0  0  4           0  0  0
   -0.7743   -1.2055    2.0702 C   0  0  0  0  0  4           0  0  0
   -1.5732    0.0806    7.8271 C   0  0  0  0  0  4           0  0  0
   -2.9337    0.0847    8.1141 C   0  0  0  0  0  4           0  0  0
   -4.4774   -0.1029    4.7248 C   0  0  0  0  0  4           0  0  0
    1.7796    2.5134   -0.0058 C   0  0  0  0  0  4           0  0  0
    0.0000    0.0000    0.0000 C   0  0  0  0  0  4           0  0  0
    1.7859   -2.5228    0.0017 C   0  0  0  0  0  4           0  0  0
    2.5394   -3.3969   -0.9956 C   0  0  0  0  0  4           0  0  0
    2.4278   -2.9321   -2.4480 C   0  0  0  0  0  4           0  0  0
    3.1904   -3.8258   -3.4146 C   0  0  0  0  0  4           0  0  0
  1  7  1  0     0  0
  2 22  2  0     0  0
  3 22  1  0     0  0
  4 23  1  0     0  0
  5  8  1  0     0  0
  5  9  1  0     0  0
  5 24  1  0     0  0
  6  7  1  0     0  0
  6  8  2  0     0  0
  7  9  2  0     0  0
  8 25  1  0     0  0
  9 23  1  0     0  0
 10 11  1  0     0  0
 10 12  1  0     0  0
 10 14  2  0     0  0
 11 15  2  0     0  0
 11 16  1  0     0  0
 12 17  2  0     0  0
 12 22  1  0     0  0
 13 18  2  0     0  0
 13 19  1  0     0  0
 13 24  1  0     0  0
 14 20  1  0     0  0
 15 18  1  0     0  0
 16 19  2  0     0  0
 17 21  1  0     0  0
 20 21  2  0     0  0
 25 26  1  0     0  0
 26 27  1  0     0  0
 27 28  1  0     0  0
M  END
> <standard_type>
pIC50

> <# Confs.>
25

> <canonical_smiles>
ClC(N=C1CCCC)=C(CO)N1CC2=CC=C(C3=CC=CC=C3C(O)=O)C=C2

> <standard_relation>
=

> <Publication_ID>
nan

> <predicted_activity_value>
5.0

> <actual_activity_value>
4.958607314841775

> <Compound>
20

> <standard_units>
nM

> hash
4469256553819631414

$$$$
20_
XXILIB    08252103513D 0   0.00000     0.00000

 28 30  0     1  0            999 V2000
    5.0074    1.4914    0.0122 Cl  0  0  0  0  0  1           0  0  0
   -4.6431    0.7138    3.8347 O   0  0  0  0  0  2           0  0  0
   -5.2363   -1.2057    4.9118 O   0  0  0  0  0  2           0  0  0
    1.6390    2.9308    1.3457 O   0  0  0  0  0  2           0  0  0
    1.4523    0.0000    0.0000 N   0  0  0  0  0  3           0  0  0
    3.5393   -0.7630    0.0025 N   0  0  0  0  0  3           0  0  0
    3.5500    0.6068    0.0019 C   0  0  0  0  0  4           0  0  0
    2.2690   -1.1150    0.0000 C   0  0  0  0  0  4           0  0  0
    2.2653    1.1171   -0.0044 C   0  0  0  0  0  4           0  0  0
   -2.0446   -0.0040    5.4234 C   0  0  0  0  0  4           0  0  0
   -1.5306   -0.0017    4.0471 C   0  0  0  0  0  4           0  0  0
   -3.4195   -0.0176    5.7457 C   0  0  0  0  0  4           0  0  0
   -0.5425    0.0000    1.3966 C   0  0  0  0  0  4           0  0  0
   -1.1355    0.0384    6.4998 C   0  0  0  0  0  4           0  0  0
   -1.2915    1.2039    3.3707 C   0  0  0  0  0  4           0  0  0
   -1.2647   -1.2060    3.3790 C   0  0  0  0  0  4           0  0  0
   -3.8595    0.0384    7.0761 C   0  0  0  0  0  4           0  0  0
   -0.8009    1.2048    2.0617 C   0  0  0  0  0  4           0  0  0
   -0.7743   -1.2055    2.0702 C   0  0  0  0  0  4           0  0  0
   -1.5732    0.0806    7.8271 C   0  0  0  0  0  4           0  0  0
   -2.9337    0.0847    8.1141 C   0  0  0  0  0  4           0  0  0
   -4.4774   -0.1029    4.7248 C   0  0  0  0  0  4           0  0  0
    1.7796    2.5134   -0.0058 C   0  0  0  0  0  4           0  0  0
    0.0000    0.0000    0.0000 C   0  0  0  0  0  4           0  0  0
    1.7859   -2.5228    0.0017 C   0  0  0  0  0  4           0  0  0
    2.5394   -3.3969   -0.9956 C   0  0  0  0  0  4           0  0  0
    2.0766   -4.8538   -1.0289 C   0  0  0  0  0  4           0  0  0
    2.8486   -5.6962   -2.0335 C   0  0  0  0  0  4           0  0  0
  1  7  1  0     0  0
  2 22  2  0     0  0
  3 22  1  0     0  0
  4 23  1  0     0  0
  5  8  1  0     0  0
  5  9  1  0     0  0
  5 24  1  0     0  0
  6  7  1  0     0  0
  6  8  2  0     0  0
  7  9  2  0     0  0
  8 25  1  0     0  0
  9 23  1  0     0  0
 10 11  1  0     0  0
 10 12  1  0     0  0
 10 14  2  0     0  0
 11 15  2  0     0  0
 11 16  1  0     0  0
 12 17  2  0     0  0
 12 22  1  0     0  0
 13 18  2  0     0  0
 13 19  1  0     0  0
 13 24  1  0     0  0
 14 20  1  0     0  0
 15 18  1  0     0  0
 16 19  2  0     0  0
 17 21  1  0     0  0
 20 21  2  0     0  0
 25 26  1  0     0  0
 26 27  1  0     0  0
 27 28  1  0     0  0
M  END
> <standard_type>
pIC50

> <# Confs.>
25

> <canonical_smiles>
ClC(N=C1CCCC)=C(CO)N1CC2=CC=C(C3=CC=CC=C3C(O)=O)C=C2

> <standard_relation>
=

> <Publication_ID>
nan

> <predicted_activity_value>
5.0

> <actual_activity_value>
4.958607314841775

> <Compound>
20

> <standard_units>
nM

> hash
4469256553819631414

$$$$
20_
XXILIB    08252103513D 0   0.00000     0.00000

 28 30  0     1  0            999 V2000
    5.0074   -1.4914   -0.0122 Cl  0  0  0  0  0  1           0  0  0
   -4.5330    1.3774    3.8855 O   0  0  0  0  0  2           0  0  0
   -3.8155    3.0509    5.2570 O   0  0  0  0  0  2           0  0  0
    1.6390   -2.9308   -1.3457 O   0  0  0  0  0  2           0  0  0
    1.4523    0.0000    0.0000 N   0  0  0  0  0  3           0  0  0
    3.5393    0.7630   -0.0025 N   0  0  0  0  0  3           0  0  0
    3.5500   -0.6068   -0.0019 C   0  0  0  0  0  4           0  0  0
    2.2690    1.1150   -0.0000 C   0  0  0  0  0  4           0  0  0
    2.2653   -1.1171    0.0044 C   0  0  0  0  0  4           0  0  0
   -2.1342    0.0438    5.3886 C   0  0  0  0  0  4           0  0  0
   -1.5911    0.0286    4.0236 C   0  0  0  0  0  4           0  0  0
   -3.2008    0.8743    5.7976 C   0  0  0  0  0  4           0  0  0
   -0.5425    0.0000    1.3966 C   0  0  0  0  0  4           0  0  0
   -1.5571   -0.7866    6.3705 C   0  0  0  0  0  4           0  0  0
   -2.1116   -0.8395    3.0522 C   0  0  0  0  0  4           0  0  0
   -0.5409    0.8844    3.6602 C   0  0  0  0  0  4           0  0  0
   -3.6452    0.8923    7.1276 C   0  0  0  0  0  4           0  0  0
   -1.5950   -0.8519    1.7533 C   0  0  0  0  0  4           0  0  0
   -0.0240    0.8721    2.3617 C   0  0  0  0  0  4           0  0  0
   -2.0085   -0.7791    7.6938 C   0  0  0  0  0  4           0  0  0
   -3.0486    0.0626    8.0722 C   0  0  0  0  0  4           0  0  0
   -3.9232    1.7605    4.8694 C   0  0  0  0  0  4           0  0  0
    1.7796   -2.5134    0.0058 C   0  0  0  0  0  4           0  0  0
   -0.0000    0.0000    0.0000 C   0  0  0  0  0  4           0  0  0
    1.7859    2.5228   -0.0017 C   0  0  0  0  0  4           0  0  0
    2.5417    3.3953   -0.9988 C   0  0  0  0  0  4           0  0  0
    2.0789    4.8521   -1.0356 C   0  0  0  0  0  4           0  0  0
    2.8532    5.6928   -2.0399 C   0  0  0  0  0  4           0  0  0
  1  7  1  0     0  0
  2 22  2  0     0  0
  3 22  1  0     0  0
  4 23  1  0     0  0
  5  8  1  0     0  0
  5  9  1  0     0  0
  5 24  1  0     0  0
  6  7  1  0     0  0
  6  8  2  0     0  0
  7  9  2  0     0  0
  8 25  1  0     0  0
  9 23  1  0     0  0
 10 11  1  0     0  0
 10 12  1  0     0  0
 10 14  2  0     0  0
 11 15  2  0     0  0
 11 16  1  0     0  0
 12 17  2  0     0  0
 12 22  1  0     0  0
 13 18  2  0     0  0
 13 19  1  0     0  0
 13 24  1  0     0  0
 14 20  1  0     0  0
 15 18  1  0     0  0
 16 19  2  0     0  0
 17 21  1  0     0  0
 20 21  2  0     0  0
 25 26  1  0     0  0
 26 27  1  0     0  0
 27 28  1  0     0  0
M  END
> <standard_type>
pIC50

> <# Confs.>
25

> <canonical_smiles>
ClC(N=C1CCCC)=C(CO)N1CC2=CC=C(C3=CC=CC=C3C(O)=O)C=C2

> <standard_relation>
=

> <Publication_ID>
nan

> <predicted_activity_value>
5.0

> <actual_activity_value>
4.958607314841775

> <Compound>
20

> <standard_units>
nM

> hash
4469256553819631414

$$$$
20_
XXILIB    08252103513D 0   0.00000     0.00000

 28 30  0     1  0            999 V2000
    5.0074   -1.4914   -0.0122 Cl  0  0  0  0  0  1           0  0  0
   -0.0474    2.5414    6.1431 O   0  0  0  0  0  2           0  0  0
    0.9531    0.5215    6.4832 O   0  0  0  0  0  2           0  0  0
    0.7351   -2.6159   -0.9528 O   0  0  0  0  0  2           0  0  0
    1.4523    0.0000    0.0000 N   0  0  0  0  0  3           0  0  0
    3.5393    0.7630   -0.0025 N   0  0  0  0  0  3           0  0  0
    3.5500   -0.6068   -0.0019 C   0  0  0  0  0  4           0  0  0
    2.2690    1.1150   -0.0000 C   0  0  0  0  0  4           0  0  0
    2.2653   -1.1171    0.0044 C   0  0  0  0  0  4           0  0  0
   -2.0446   -0.0040    5.4234 C   0  0  0  0  0  4           0  0  0
   -1.5306   -0.0017    4.0471 C   0  0  0  0  0  4           0  0  0
   -1.3710    0.5931    6.5117 C   0  0  0  0  0  4           0  0  0
   -0.5425    0.0000    1.3966 C   0  0  0  0  0  4           0  0  0
   -3.2617   -0.6569    5.7047 C   0  0  0  0  0  4           0  0  0
   -1.2915    1.2039    3.3707 C   0  0  0  0  0  4           0  0  0
   -1.2647   -1.2060    3.3790 C   0  0  0  0  0  4           0  0  0
   -1.8768    0.5138    7.8173 C   0  0  0  0  0  4           0  0  0
   -0.8009    1.2048    2.0617 C   0  0  0  0  0  4           0  0  0
   -0.7743   -1.2055    2.0702 C   0  0  0  0  0  4           0  0  0
   -3.7735   -0.7247    7.0041 C   0  0  0  0  0  4           0  0  0
   -3.0793   -0.1434    8.0593 C   0  0  0  0  0  4           0  0  0
   -0.1130    1.3428    6.3571 C   0  0  0  0  0  4           0  0  0
    1.7796   -2.5134    0.0058 C   0  0  0  0  0  4           0  0  0
    0.0000    0.0000    0.0000 C   0  0  0  0  0  4           0  0  0
    1.7859    2.5228   -0.0017 C   0  0  0  0  0  4           0  0  0
    2.5417    3.3953   -0.9988 C   0  0  0  0  0  4           0  0  0
    2.4334    2.9280   -2.4506 C   0  0  0  0  0  4           0  0  0
    3.1982    3.8200   -3.4171 C   0  0  0  0  0  4           0  0  0
  1  7  1  0     0  0
  2 22  2  0     0  0
  3 22  1  0     0  0
  4 23  1  0     0  0
  5  8  1  0     0  0
  5  9  1  0     0  0
  5 24  1  0     0  0
  6  7  1  0     0  0
  6  8  2  0     0  0
  7  9  2  0     0  0
  8 25  1  0     0  0
  9 23  1  0     0  0
 10 11  1  0     0  0
 10 12  1  0     0  0
 10 14  2  0     0  0
 11 15  2  0     0  0
 11 16  1  0     0  0
 12 17  2  0     0  0
 12 22  1  0     0  0
 13 18  2  0     0  0
 13 19  1  0     0  0
 13 24  1  0     0  0
 14 20  1  0     0  0
 15 18  1  0     0  0
 16 19  2  0     0  0
 17 21  1  0     0  0
 20 21  2  0     0  0
 25 26  1  0     0  0
 26 27  1  0     0  0
 27 28  1  0     0  0
M  END
> <standard_type>
pIC50

> <# Confs.>
25

> <canonical_smiles>
ClC(N=C1CCCC)=C(CO)N1CC2=CC=C(C3=CC=CC=C3C(O)=O)C=C2

> <standard_relation>
=

> <Publication_ID>
nan

> <predicted_activity_value>
5.0

> <actual_activity_value>
4.958607314841775

> <Compound>
20

> <standard_units>
nM

> hash
4469256553819631414

$$$$
20_
XXILIB    08252103513D 0   0.00000     0.00000

 28 30  0     1  0            999 V2000
    5.0074   -1.4914   -0.0122 Cl  0  0  0  0  0  1           0  0  0
   -0.4362   -2.5833    5.4690 O   0  0  0  0  0  2           0  0  0
    0.4951   -1.3412    7.1382 O   0  0  0  0  0  2           0  0  0
    1.6390   -2.9308   -1.3457 O   0  0  0  0  0  2           0  0  0
    1.4523    0.0000    0.0000 N   0  0  0  0  0  3           0  0  0
    3.5393    0.7630   -0.0025 N   0  0  0  0  0  3           0  0  0
    3.5500   -0.6068   -0.0019 C   0  0  0  0  0  4           0  0  0
    2.2690    1.1150   -0.0000 C   0  0  0  0  0  4           0  0  0
    2.2653   -1.1171    0.0044 C   0  0  0  0  0  4           0  0  0
   -2.1342    0.0438    5.3886 C   0  0  0  0  0  4           0  0  0
   -1.5911    0.0286    4.0236 C   0  0  0  0  0  4           0  0  0
   -1.6465   -0.7703    6.4344 C   0  0  0  0  0  4           0  0  0
   -0.5425    0.0000    1.3966 C   0  0  0  0  0  4           0  0  0
   -3.2217    0.8886    5.6894 C   0  0  0  0  0  4           0  0  0
   -2.1116   -0.8395    3.0522 C   0  0  0  0  0  4           0  0  0
   -0.5409    0.8844    3.6602 C   0  0  0  0  0  4           0  0  0
   -2.2373   -0.7592    7.7063 C   0  0  0  0  0  4           0  0  0
   -1.5950   -0.8519    1.7533 C   0  0  0  0  0  4           0  0  0
   -0.0240    0.8721    2.3617 C   0  0  0  0  0  4           0  0  0
   -3.8028    0.9102    6.9610 C   0  0  0  0  0  4           0  0  0
   -3.3133    0.0840    7.9666 C   0  0  0  0  0  4           0  0  0
   -0.4908   -1.6687    6.2735 C   0  0  0  0  0  4           0  0  0
    1.7796   -2.5134    0.0058 C   0  0  0  0  0  4           0  0  0
   -0.0000    0.0000    0.0000 C   0  0  0  0  0  4           0  0  0
    1.7859    2.5228   -0.0017 C   0  0  0  0  0  4           0  0  0
    2.5417    3.3953   -0.9988 C   0  0  0  0  0  4           0  0  0
    2.0789    4.8521   -1.0356 C   0  0  0  0  0  4           0  0  0
    2.8532    5.6928   -2.0399 C   0  0  0  0  0  4           0  0  0
  1  7  1  0     0  0
  2 22  2  0     0  0
  3 22  1  0     0  0
  4 23  1  0     0  0
  5  8  1  0     0  0
  5  9  1  0     0  0
  5 24  1  0     0  0
  6  7  1  0     0  0
  6  8  2  0     0  0
  7  9  2  0     0  0
  8 25  1  0     0  0
  9 23  1  0     0  0
 10 11  1  0     0  0
 10 12  1  0     0  0
 10 14  2  0     0  0
 11 15  2  0     0  0
 11 16  1  0     0  0
 12 17  2  0     0  0
 12 22  1  0     0  0
 13 18  2  0     0  0
 13 19  1  0     0  0
 13 24  1  0     0  0
 14 20  1  0     0  0
 15 18  1  0     0  0
 16 19  2  0     0  0
 17 21  1  0     0  0
 20 21  2  0     0  0
 25 26  1  0     0  0
 26 27  1  0     0  0
 27 28  1  0     0  0
M  END
> <standard_type>
pIC50

> <# Confs.>
25

> <canonical_smiles>
ClC(N=C1CCCC)=C(CO)N1CC2=CC=C(C3=CC=CC=C3C(O)=O)C=C2

> <standard_relation>
=

> <Publication_ID>
nan

> <predicted_activity_value>
5.0

> <actual_activity_value>
4.958607314841775

> <Compound>
20

> <standard_units>
nM

> hash
4469256553819631414

$$$$
20_
XXILIB    08252103513D 0   0.00000     0.00000

 28 30  0     1  0            999 V2000
    5.0074   -1.4914   -0.0122 Cl  0  0  0  0  0  1           0  0  0
   -4.6431    0.7138    3.8347 O   0  0  0  0  0  2           0  0  0
   -5.2363   -1.2057    4.9118 O   0  0  0  0  0  2           0  0  0
    0.7351   -2.6159   -0.9528 O   0  0  0  0  0  2           0  0  0
    1.4523    0.0000    0.0000 N   0  0  0  0  0  3           0  0  0
    3.5393    0.7630   -0.0025 N   0  0  0  0  0  3           0  0  0
    3.5500   -0.6068   -0.0019 C   0  0  0  0  0  4           0  0  0
    2.2690    1.1150   -0.0000 C   0  0  0  0  0  4           0  0  0
    2.2653   -1.1171    0.0044 C   0  0  0  0  0  4           0  0  0
   -2.0446   -0.0040    5.4234 C   0  0  0  0  0  4           0  0  0
   -1.5306   -0.0017    4.0471 C   0  0  0  0  0  4           0  0  0
   -3.4195   -0.0176    5.7457 C   0  0  0  0  0  4           0  0  0
   -0.5425    0.0000    1.3966 C   0  0  0  0  0  4           0  0  0
   -1.1355    0.0384    6.4998 C   0  0  0  0  0  4           0  0  0
   -1.2915    1.2039    3.3707 C   0  0  0  0  0  4           0  0  0
   -1.2647   -1.2060    3.3790 C   0  0  0  0  0  4           0  0  0
   -3.8595    0.0384    7.0761 C   0  0  0  0  0  4           0  0  0
   -0.8009    1.2048    2.0617 C   0  0  0  0  0  4           0  0  0
   -0.7743   -1.2055    2.0702 C   0  0  0  0  0  4           0  0  0
   -1.5732    0.0806    7.8271 C   0  0  0  0  0  4           0  0  0
   -2.9337    0.0847    8.1141 C   0  0  0  0  0  4           0  0  0
   -4.4774   -0.1029    4.7248 C   0  0  0  0  0  4           0  0  0
    1.7796   -2.5134    0.0058 C   0  0  0  0  0  4           0  0  0
    0.0000    0.0000    0.0000 C   0  0  0  0  0  4           0  0  0
    1.7859    2.5228   -0.0017 C   0  0  0  0  0  4           0  0  0
    2.5417    3.3953   -0.9988 C   0  0  0  0  0  4           0  0  0
    2.4334    2.9280   -2.4506 C   0  0  0  0  0  4           0  0  0
    3.1982    3.8200   -3.4171 C   0  0  0  0  0  4           0  0  0
  1  7  1  0     0  0
  2 22  2  0     0  0
  3 22  1  0     0  0
  4 23  1  0     0  0
  5  8  1  0     0  0
  5  9  1  0     0  0
  5 24  1  0     0  0
  6  7  1  0     0  0
  6  8  2  0     0  0
  7  9  2  0     0  0
  8 25  1  0     0  0
  9 23  1  0     0  0
 10 11  1  0     0  0
 10 12  1  0     0  0
 10 14  2  0     0  0
 11 15  2  0     0  0
 11 16  1  0     0  0
 12 17  2  0     0  0
 12 22  1  0     0  0
 13 18  2  0     0  0
 13 19  1  0     0  0
 13 24  1  0     0  0
 14 20  1  0     0  0
 15 18  1  0     0  0
 16 19  2  0     0  0
 17 21  1  0     0  0
 20 21  2  0     0  0
 25 26  1  0     0  0
 26 27  1  0     0  0
 27 28  1  0     0  0
M  END
> <standard_type>
pIC50

> <# Confs.>
25

> <canonical_smiles>
ClC(N=C1CCCC)=C(CO)N1CC2=CC=C(C3=CC=CC=C3C(O)=O)C=C2

> <standard_relation>
=

> <Publication_ID>
nan

> <predicted_activity_value>
5.0

> <actual_activity_value>
4.958607314841775

> <Compound>
20

> <standard_units>
nM

> hash
4469256553819631414

$$$$
20_
XXILIB    08252103513D 0   0.00000     0.00000

 28 30  0     1  0            999 V2000
    5.0074   -1.4914   -0.0122 Cl  0  0  0  0  0  1           0  0  0
   -0.3420   -2.5128    5.5965 O   0  0  0  0  0  2           0  0  0
   -2.4418   -3.3554    5.8753 O   0  0  0  0  0  2           0  0  0
    1.6390   -2.9308   -1.3457 O   0  0  0  0  0  2           0  0  0
    1.4523    0.0000    0.0000 N   0  0  0  0  0  3           0  0  0
    3.5393    0.7630   -0.0025 N   0  0  0  0  0  3           0  0  0
    3.5500   -0.6068   -0.0019 C   0  0  0  0  0  4           0  0  0
    2.2690    1.1150   -0.0000 C   0  0  0  0  0  4           0  0  0
    2.2653   -1.1171    0.0044 C   0  0  0  0  0  4           0  0  0
   -2.1342    0.0438    5.3886 C   0  0  0  0  0  4           0  0  0
   -1.5911    0.0286    4.0236 C   0  0  0  0  0  4           0  0  0
   -2.1342   -1.0800    6.2438 C   0  0  0  0  0  4           0  0  0
   -0.5425    0.0000    1.3966 C   0  0  0  0  0  4           0  0  0
   -2.7193    1.2260    5.8856 C   0  0  0  0  0  4           0  0  0
   -2.1116   -0.8395    3.0522 C   0  0  0  0  0  4           0  0  0
   -0.5409    0.8844    3.6602 C   0  0  0  0  0  4           0  0  0
   -2.7167   -1.0291    7.5185 C   0  0  0  0  0  4           0  0  0
   -1.5950   -0.8519    1.7533 C   0  0  0  0  0  4           0  0  0
   -0.0240    0.8721    2.3617 C   0  0  0  0  0  4           0  0  0
   -3.2883    1.2815    7.1615 C   0  0  0  0  0  4           0  0  0
   -3.2903    0.1538    7.9750 C   0  0  0  0  0  4           0  0  0
   -1.5209   -2.3660    5.8715 C   0  0  0  0  0  4           0  0  0
    1.7796   -2.5134    0.0058 C   0  0  0  0  0  4           0  0  0
   -0.0000    0.0000    0.0000 C   0  0  0  0  0  4           0  0  0
    1.7859    2.5228   -0.0017 C   0  0  0  0  0  4           0  0  0
    2.5417    3.3953   -0.9988 C   0  0  0  0  0  4           0  0  0
    2.4334    2.9280   -2.4506 C   0  0  0  0  0  4           0  0  0
    3.1982    3.8200   -3.4171 C   0  0  0  0  0  4           0  0  0
  1  7  1  0     0  0
  2 22  2  0     0  0
  3 22  1  0     0  0
  4 23  1  0     0  0
  5  8  1  0     0  0
  5  9  1  0     0  0
  5 24  1  0     0  0
  6  7  1  0     0  0
  6  8  2  0     0  0
  7  9  2  0     0  0
  8 25  1  0     0  0
  9 23  1  0     0  0
 10 11  1  0     0  0
 10 12  1  0     0  0
 10 14  2  0     0  0
 11 15  2  0     0  0
 11 16  1  0     0  0
 12 17  2  0     0  0
 12 22  1  0     0  0
 13 18  2  0     0  0
 13 19  1  0     0  0
 13 24  1  0     0  0
 14 20  1  0     0  0
 15 18  1  0     0  0
 16 19  2  0     0  0
 17 21  1  0     0  0
 20 21  2  0     0  0
 25 26  1  0     0  0
 26 27  1  0     0  0
 27 28  1  0     0  0
M  END
> <standard_type>
pIC50

> <# Confs.>
25

> <canonical_smiles>
ClC(N=C1CCCC)=C(CO)N1CC2=CC=C(C3=CC=CC=C3C(O)=O)C=C2

> <standard_relation>
=

> <Publication_ID>
nan

> <predicted_activity_value>
5.0

> <actual_activity_value>
4.958607314841775

> <Compound>
20

> <standard_units>
nM

> hash
4469256553819631414

$$$$
20_
XXILIB    08252103513D 0   0.00000     0.00000

 28 30  0     1  0            999 V2000
    5.0074   -1.4914   -0.0122 Cl  0  0  0  0  0  1           0  0  0
   -3.4032    2.6589    4.2298 O   0  0  0  0  0  2           0  0  0
   -5.2361    1.4422    4.8267 O   0  0  0  0  0  2           0  0  0
    1.6390   -2.9308   -1.3457 O   0  0  0  0  0  2           0  0  0
    1.4523    0.0000    0.0000 N   0  0  0  0  0  3           0  0  0
    3.5393    0.7630   -0.0025 N   0  0  0  0  0  3           0  0  0
    3.5500   -0.6068   -0.0019 C   0  0  0  0  0  4           0  0  0
    2.2690    1.1150   -0.0000 C   0  0  0  0  0  4           0  0  0
    2.2653   -1.1171    0.0044 C   0  0  0  0  0  4           0  0  0
   -2.1342    0.0438    5.3886 C   0  0  0  0  0  4           0  0  0
   -1.5911    0.0286    4.0236 C   0  0  0  0  0  4           0  0  0
   -3.2008    0.8743    5.7976 C   0  0  0  0  0  4           0  0  0
   -0.5425    0.0000    1.3966 C   0  0  0  0  0  4           0  0  0
   -1.5571   -0.7866    6.3705 C   0  0  0  0  0  4           0  0  0
   -2.1116   -0.8395    3.0522 C   0  0  0  0  0  4           0  0  0
   -0.5409    0.8844    3.6602 C   0  0  0  0  0  4           0  0  0
   -3.6452    0.8923    7.1276 C   0  0  0  0  0  4           0  0  0
   -1.5950   -0.8519    1.7533 C   0  0  0  0  0  4           0  0  0
   -0.0240    0.8721    2.3617 C   0  0  0  0  0  4           0  0  0
   -2.0085   -0.7791    7.6938 C   0  0  0  0  0  4           0  0  0
   -3.0486    0.0626    8.0722 C   0  0  0  0  0  4           0  0  0
   -3.9232    1.7605    4.8694 C   0  0  0  0  0  4           0  0  0
    1.7796   -2.5134    0.0058 C   0  0  0  0  0  4           0  0  0
   -0.0000    0.0000    0.0000 C   0  0  0  0  0  4           0  0  0
    1.7859    2.5228   -0.0017 C   0  0  0  0  0  4           0  0  0
    2.5417    3.3953   -0.9988 C   0  0  0  0  0  4           0  0  0
    2.0789    4.8521   -1.0356 C   0  0  0  0  0  4           0  0  0
    2.8532    5.6928   -2.0399 C   0  0  0  0  0  4           0  0  0
  1  7  1  0     0  0
  2 22  2  0     0  0
  3 22  1  0     0  0
  4 23  1  0     0  0
  5  8  1  0     0  0
  5  9  1  0     0  0
  5 24  1  0     0  0
  6  7  1  0     0  0
  6  8  2  0     0  0
  7  9  2  0     0  0
  8 25  1  0     0  0
  9 23  1  0     0  0
 10 11  1  0     0  0
 10 12  1  0     0  0
 10 14  2  0     0  0
 11 15  2  0     0  0
 11 16  1  0     0  0
 12 17  2  0     0  0
 12 22  1  0     0  0
 13 18  2  0     0  0
 13 19  1  0     0  0
 13 24  1  0     0  0
 14 20  1  0     0  0
 15 18  1  0     0  0
 16 19  2  0     0  0
 17 21  1  0     0  0
 20 21  2  0     0  0
 25 26  1  0     0  0
 26 27  1  0     0  0
 27 28  1  0     0  0
M  END
> <standard_type>
pIC50

> <# Confs.>
25

> <canonical_smiles>
ClC(N=C1CCCC)=C(CO)N1CC2=CC=C(C3=CC=CC=C3C(O)=O)C=C2

> <standard_relation>
=

> <Publication_ID>
nan

> <predicted_activity_value>
5.0

> <actual_activity_value>
4.958607314841775

> <Compound>
20

> <standard_units>
nM

> hash
4469256553819631414

$$$$
20_
XXILIB    08252103513D 0   0.00000     0.00000

 28 30  0     1  0            999 V2000
    5.0074   -1.4914   -0.0122 Cl  0  0  0  0  0  1           0  0  0
   -4.6018   -1.0254    3.9373 O   0  0  0  0  0  2           0  0  0
   -5.2861    0.9787    4.7809 O   0  0  0  0  0  2           0  0  0
    0.7351   -2.6159   -0.9528 O   0  0  0  0  0  2           0  0  0
    1.4523    0.0000    0.0000 N   0  0  0  0  0  3           0  0  0
    3.5393    0.7630   -0.0025 N   0  0  0  0  0  3           0  0  0
    3.5500   -0.6068   -0.0019 C   0  0  0  0  0  4           0  0  0
    2.2690    1.1150   -0.0000 C   0  0  0  0  0  4           0  0  0
    2.2653   -1.1171    0.0044 C   0  0  0  0  0  4           0  0  0
   -2.0446   -0.0040    5.4234 C   0  0  0  0  0  4           0  0  0
   -1.5306   -0.0017    4.0471 C   0  0  0  0  0  4           0  0  0
   -3.4195   -0.0176    5.7457 C   0  0  0  0  0  4           0  0  0
   -0.5425    0.0000    1.3966 C   0  0  0  0  0  4           0  0  0
   -1.1355    0.0384    6.4998 C   0  0  0  0  0  4           0  0  0
   -1.2915    1.2039    3.3707 C   0  0  0  0  0  4           0  0  0
   -1.2647   -1.2060    3.3790 C   0  0  0  0  0  4           0  0  0
   -3.8595    0.0384    7.0761 C   0  0  0  0  0  4           0  0  0
   -0.8009    1.2048    2.0617 C   0  0  0  0  0  4           0  0  0
   -0.7743   -1.2055    2.0702 C   0  0  0  0  0  4           0  0  0
   -1.5732    0.0806    7.8271 C   0  0  0  0  0  4           0  0  0
   -2.9337    0.0847    8.1141 C   0  0  0  0  0  4           0  0  0
   -4.4774   -0.1029    4.7248 C   0  0  0  0  0  4           0  0  0
    1.7796   -2.5134    0.0058 C   0  0  0  0  0  4           0  0  0
    0.0000    0.0000    0.0000 C   0  0  0  0  0  4           0  0  0
    1.7859    2.5228   -0.0017 C   0  0  0  0  0  4           0  0  0
    2.5417    3.3953   -0.9988 C   0  0  0  0  0  4           0  0  0
    2.4334    2.9280   -2.4506 C   0  0  0  0  0  4           0  0  0
    3.1982    3.8200   -3.4171 C   0  0  0  0  0  4           0  0  0
  1  7  1  0     0  0
  2 22  2  0     0  0
  3 22  1  0     0  0
  4 23  1  0     0  0
  5  8  1  0     0  0
  5  9  1  0     0  0
  5 24  1  0     0  0
  6  7  1  0     0  0
  6  8  2  0     0  0
  7  9  2  0     0  0
  8 25  1  0     0  0
  9 23  1  0     0  0
 10 11  1  0     0  0
 10 12  1  0     0  0
 10 14  2  0     0  0
 11 15  2  0     0  0
 11 16  1  0     0  0
 12 17  2  0     0  0
 12 22  1  0     0  0
 13 18  2  0     0  0
 13 19  1  0     0  0
 13 24  1  0     0  0
 14 20  1  0     0  0
 15 18  1  0     0  0
 16 19  2  0     0  0
 17 21  1  0     0  0
 20 21  2  0     0  0
 25 26  1  0     0  0
 26 27  1  0     0  0
 27 28  1  0     0  0
M  END
> <standard_type>
pIC50

> <# Confs.>
25

> <canonical_smiles>
ClC(N=C1CCCC)=C(CO)N1CC2=CC=C(C3=CC=CC=C3C(O)=O)C=C2

> <standard_relation>
=

> <Publication_ID>
nan

> <predicted_activity_value>
5.0

> <actual_activity_value>
4.958607314841775

> <Compound>
20

> <standard_units>
nM

> hash
4469256553819631414

$$$$
20_
XXILIB    08252103513D 0   0.00000     0.00000

 28 30  0     1  0            999 V2000
    5.0074    1.4914    0.0122 Cl  0  0  0  0  0  1           0  0  0
   -0.0474    2.5414    6.1431 O   0  0  0  0  0  2           0  0  0
    0.9531    0.5215    6.4832 O   0  0  0  0  0  2           0  0  0
    1.6390    2.9308    1.3457 O   0  0  0  0  0  2           0  0  0
    1.4523    0.0000    0.0000 N   0  0  0  0  0  3           0  0  0
    3.5393   -0.7630    0.0025 N   0  0  0  0  0  3           0  0  0
    3.5500    0.6068    0.0019 C   0  0  0  0  0  4           0  0  0
    2.2690   -1.1150    0.0000 C   0  0  0  0  0  4           0  0  0
    2.2653    1.1171   -0.0044 C   0  0  0  0  0  4           0  0  0
   -2.0446   -0.0040    5.4234 C   0  0  0  0  0  4           0  0  0
   -1.5306   -0.0017    4.0471 C   0  0  0  0  0  4           0  0  0
   -1.3710    0.5931    6.5117 C   0  0  0  0  0  4           0  0  0
   -0.5425    0.0000    1.3966 C   0  0  0  0  0  4           0  0  0
   -3.2617   -0.6569    5.7047 C   0  0  0  0  0  4           0  0  0
   -1.2915    1.2039    3.3707 C   0  0  0  0  0  4           0  0  0
   -1.2647   -1.2060    3.3790 C   0  0  0  0  0  4           0  0  0
   -1.8768    0.5138    7.8173 C   0  0  0  0  0  4           0  0  0
   -0.8009    1.2048    2.0617 C   0  0  0  0  0  4           0  0  0
   -0.7743   -1.2055    2.0702 C   0  0  0  0  0  4           0  0  0
   -3.7735   -0.7247    7.0041 C   0  0  0  0  0  4           0  0  0
   -3.0793   -0.1434    8.0593 C   0  0  0  0  0  4           0  0  0
   -0.1130    1.3428    6.3571 C   0  0  0  0  0  4           0  0  0
    1.7796    2.5134   -0.0058 C   0  0  0  0  0  4           0  0  0
    0.0000    0.0000    0.0000 C   0  0  0  0  0  4           0  0  0
    1.7859   -2.5228    0.0017 C   0  0  0  0  0  4           0  0  0
    2.5394   -3.3969   -0.9956 C   0  0  0  0  0  4           0  0  0
    2.4278   -2.9321   -2.4480 C   0  0  0  0  0  4           0  0  0
    3.1904   -3.8258   -3.4146 C   0  0  0  0  0  4           0  0  0
  1  7  1  0     0  0
  2 22  2  0     0  0
  3 22  1  0     0  0
  4 23  1  0     0  0
  5  8  1  0     0  0
  5  9  1  0     0  0
  5 24  1  0     0  0
  6  7  1  0     0  0
  6  8  2  0     0  0
  7  9  2  0     0  0
  8 25  1  0     0  0
  9 23  1  0     0  0
 10 11  1  0     0  0
 10 12  1  0     0  0
 10 14  2  0     0  0
 11 15  2  0     0  0
 11 16  1  0     0  0
 12 17  2  0     0  0
 12 22  1  0     0  0
 13 18  2  0     0  0
 13 19  1  0     0  0
 13 24  1  0     0  0
 14 20  1  0     0  0
 15 18  1  0     0  0
 16 19  2  0     0  0
 17 21  1  0     0  0
 20 21  2  0     0  0
 25 26  1  0     0  0
 26 27  1  0     0  0
 27 28  1  0     0  0
M  END
> <standard_type>
pIC50

> <# Confs.>
25

> <canonical_smiles>
ClC(N=C1CCCC)=C(CO)N1CC2=CC=C(C3=CC=CC=C3C(O)=O)C=C2

> <standard_relation>
=

> <Publication_ID>
nan

> <predicted_activity_value>
5.0

> <actual_activity_value>
4.958607314841775

> <Compound>
20

> <standard_units>
nM

> hash
4469256553819631414

$$$$
20_
XXILIB    08252103513D 0   0.00000     0.00000

 28 30  0     1  0            999 V2000
    5.0074    1.4914    0.0122 Cl  0  0  0  0  0  1           0  0  0
   -4.6018   -1.0254    3.9373 O   0  0  0  0  0  2           0  0  0
   -5.2861    0.9787    4.7809 O   0  0  0  0  0  2           0  0  0
    1.6390    2.9308    1.3457 O   0  0  0  0  0  2           0  0  0
    1.4523   -0.0000    0.0000 N   0  0  0  0  0  3           0  0  0
    3.5393   -0.7630    0.0025 N   0  0  0  0  0  3           0  0  0
    3.5500    0.6068    0.0019 C   0  0  0  0  0  4           0  0  0
    2.2690   -1.1150    0.0000 C   0  0  0  0  0  4           0  0  0
    2.2653    1.1171   -0.0044 C   0  0  0  0  0  4           0  0  0
   -2.0446   -0.0040    5.4234 C   0  0  0  0  0  4           0  0  0
   -1.5306   -0.0017    4.0471 C   0  0  0  0  0  4           0  0  0
   -3.4195   -0.0176    5.7457 C   0  0  0  0  0  4           0  0  0
   -0.5425    0.0000    1.3966 C   0  0  0  0  0  4           0  0  0
   -1.1355    0.0384    6.4998 C   0  0  0  0  0  4           0  0  0
   -1.2915    1.2039    3.3707 C   0  0  0  0  0  4           0  0  0
   -1.2647   -1.2060    3.3790 C   0  0  0  0  0  4           0  0  0
   -3.8595    0.0384    7.0761 C   0  0  0  0  0  4           0  0  0
   -0.8009    1.2048    2.0617 C   0  0  0  0  0  4           0  0  0
   -0.7743   -1.2055    2.0702 C   0  0  0  0  0  4           0  0  0
   -1.5732    0.0806    7.8271 C   0  0  0  0  0  4           0  0  0
   -2.9337    0.0847    8.1141 C   0  0  0  0  0  4           0  0  0
   -4.4774   -0.1029    4.7248 C   0  0  0  0  0  4           0  0  0
    1.7796    2.5134   -0.0058 C   0  0  0  0  0  4           0  0  0
    0.0000    0.0000    0.0000 C   0  0  0  0  0  4           0  0  0
    1.7859   -2.5228    0.0017 C   0  0  0  0  0  4           0  0  0
    2.5417   -3.3953    0.9988 C   0  0  0  0  0  4           0  0  0
    2.0789   -4.8521    1.0356 C   0  0  0  0  0  4           0  0  0
    2.8532   -5.6928    2.0399 C   0  0  0  0  0  4           0  0  0
  1  7  1  0     0  0
  2 22  2  0     0  0
  3 22  1  0     0  0
  4 23  1  0     0  0
  5  8  1  0     0  0
  5  9  1  0     0  0
  5 24  1  0     0  0
  6  7  1  0     0  0
  6  8  2  0     0  0
  7  9  2  0     0  0
  8 25  1  0     0  0
  9 23  1  0     0  0
 10 11  1  0     0  0
 10 12  1  0     0  0
 10 14  2  0     0  0
 11 15  2  0     0  0
 11 16  1  0     0  0
 12 17  2  0     0  0
 12 22  1  0     0  0
 13 18  2  0     0  0
 13 19  1  0     0  0
 13 24  1  0     0  0
 14 20  1  0     0  0
 15 18  1  0     0  0
 16 19  2  0     0  0
 17 21  1  0     0  0
 20 21  2  0     0  0
 25 26  1  0     0  0
 26 27  1  0     0  0
 27 28  1  0     0  0
M  END
> <standard_type>
pIC50

> <# Confs.>
25

> <canonical_smiles>
ClC(N=C1CCCC)=C(CO)N1CC2=CC=C(C3=CC=CC=C3C(O)=O)C=C2

> <standard_relation>
=

> <Publication_ID>
nan

> <predicted_activity_value>
5.0

> <actual_activity_value>
4.958607314841775

> <Compound>
20

> <standard_units>
nM

> hash
4469256553819631414

$$$$
20_
XXILIB    08252103513D 0   0.00000     0.00000

 28 30  0     1  0            999 V2000
    5.0074    1.4914    0.0122 Cl  0  0  0  0  0  1           0  0  0
   -0.0474    2.5414    6.1431 O   0  0  0  0  0  2           0  0  0
    0.9531    0.5215    6.4832 O   0  0  0  0  0  2           0  0  0
    1.6390    2.9308    1.3457 O   0  0  0  0  0  2           0  0  0
    1.4523    0.0000    0.0000 N   0  0  0  0  0  3           0  0  0
    3.5393   -0.7630    0.0025 N   0  0  0  0  0  3           0  0  0
    3.5500    0.6068    0.0019 C   0  0  0  0  0  4           0  0  0
    2.2690   -1.1150    0.0000 C   0  0  0  0  0  4           0  0  0
    2.2653    1.1171   -0.0044 C   0  0  0  0  0  4           0  0  0
   -2.0446   -0.0040    5.4234 C   0  0  0  0  0  4           0  0  0
   -1.5306   -0.0017    4.0471 C   0  0  0  0  0  4           0  0  0
   -1.3710    0.5931    6.5117 C   0  0  0  0  0  4           0  0  0
   -0.5425    0.0000    1.3966 C   0  0  0  0  0  4           0  0  0
   -3.2617   -0.6569    5.7047 C   0  0  0  0  0  4           0  0  0
   -1.2915    1.2039    3.3707 C   0  0  0  0  0  4           0  0  0
   -1.2647   -1.2060    3.3790 C   0  0  0  0  0  4           0  0  0
   -1.8768    0.5138    7.8173 C   0  0  0  0  0  4           0  0  0
   -0.8009    1.2048    2.0617 C   0  0  0  0  0  4           0  0  0
   -0.7743   -1.2055    2.0702 C   0  0  0  0  0  4           0  0  0
   -3.7735   -0.7247    7.0041 C   0  0  0  0  0  4           0  0  0
   -3.0793   -0.1434    8.0593 C   0  0  0  0  0  4           0  0  0
   -0.1130    1.3428    6.3571 C   0  0  0  0  0  4           0  0  0
    1.7796    2.5134   -0.0058 C   0  0  0  0  0  4           0  0  0
    0.0000    0.0000    0.0000 C   0  0  0  0  0  4           0  0  0
    1.7859   -2.5228    0.0017 C   0  0  0  0  0  4           0  0  0
    2.5394   -3.3969   -0.9956 C   0  0  0  0  0  4           0  0  0
    2.0766   -4.8538   -1.0289 C   0  0  0  0  0  4           0  0  0
    2.8486   -5.6962   -2.0335 C   0  0  0  0  0  4           0  0  0
  1  7  1  0     0  0
  2 22  2  0     0  0
  3 22  1  0     0  0
  4 23  1  0     0  0
  5  8  1  0     0  0
  5  9  1  0     0  0
  5 24  1  0     0  0
  6  7  1  0     0  0
  6  8  2  0     0  0
  7  9  2  0     0  0
  8 25  1  0     0  0
  9 23  1  0     0  0
 10 11  1  0     0  0
 10 12  1  0     0  0
 10 14  2  0     0  0
 11 15  2  0     0  0
 11 16  1  0     0  0
 12 17  2  0     0  0
 12 22  1  0     0  0
 13 18  2  0     0  0
 13 19  1  0     0  0
 13 24  1  0     0  0
 14 20  1  0     0  0
 15 18  1  0     0  0
 16 19  2  0     0  0
 17 21  1  0     0  0
 20 21  2  0     0  0
 25 26  1  0     0  0
 26 27  1  0     0  0
 27 28  1  0     0  0
M  END
> <standard_type>
pIC50

> <# Confs.>
25

> <canonical_smiles>
ClC(N=C1CCCC)=C(CO)N1CC2=CC=C(C3=CC=CC=C3C(O)=O)C=C2

> <standard_relation>
=

> <Publication_ID>
nan

> <predicted_activity_value>
5.0

> <actual_activity_value>
4.958607314841775

> <Compound>
20

> <standard_units>
nM

> hash
4469256553819631414

$$$$
20_
XXILIB    08252103513D 0   0.00000     0.00000

 28 30  0     1  0            999 V2000
    5.0074   -1.4914   -0.0122 Cl  0  0  0  0  0  1           0  0  0
   -4.6431    0.7138    3.8347 O   0  0  0  0  0  2           0  0  0
   -5.2363   -1.2057    4.9118 O   0  0  0  0  0  2           0  0  0
    0.7351   -2.6159   -0.9528 O   0  0  0  0  0  2           0  0  0
    1.4523    0.0000    0.0000 N   0  0  0  0  0  3           0  0  0
    3.5393    0.7630   -0.0025 N   0  0  0  0  0  3           0  0  0
    3.5500   -0.6068   -0.0019 C   0  0  0  0  0  4           0  0  0
    2.2690    1.1150   -0.0000 C   0  0  0  0  0  4           0  0  0
    2.2653   -1.1171    0.0044 C   0  0  0  0  0  4           0  0  0
   -2.0446   -0.0040    5.4234 C   0  0  0  0  0  4           0  0  0
   -1.5306   -0.0017    4.0471 C   0  0  0  0  0  4           0  0  0
   -3.4195   -0.0176    5.7457 C   0  0  0  0  0  4           0  0  0
   -0.5425    0.0000    1.3966 C   0  0  0  0  0  4           0  0  0
   -1.1355    0.0384    6.4998 C   0  0  0  0  0  4           0  0  0
   -1.2915    1.2039    3.3707 C   0  0  0  0  0  4           0  0  0
   -1.2647   -1.2060    3.3790 C   0  0  0  0  0  4           0  0  0
   -3.8595    0.0384    7.0761 C   0  0  0  0  0  4           0  0  0
   -0.8009    1.2048    2.0617 C   0  0  0  0  0  4           0  0  0
   -0.7743   -1.2055    2.0702 C   0  0  0  0  0  4           0  0  0
   -1.5732    0.0806    7.8271 C   0  0  0  0  0  4           0  0  0
   -2.9337    0.0847    8.1141 C   0  0  0  0  0  4           0  0  0
   -4.4774   -0.1029    4.7248 C   0  0  0  0  0  4           0  0  0
    1.7796   -2.5134    0.0058 C   0  0  0  0  0  4           0  0  0
    0.0000    0.0000    0.0000 C   0  0  0  0  0  4           0  0  0
    1.7859    2.5228   -0.0017 C   0  0  0  0  0  4           0  0  0
    2.5417    3.3953   -0.9988 C   0  0  0  0  0  4           0  0  0
    2.0789    4.8521   -1.0356 C   0  0  0  0  0  4           0  0  0
    2.8532    5.6928   -2.0399 C   0  0  0  0  0  4           0  0  0
  1  7  1  0     0  0
  2 22  2  0     0  0
  3 22  1  0     0  0
  4 23  1  0     0  0
  5  8  1  0     0  0
  5  9  1  0     0  0
  5 24  1  0     0  0
  6  7  1  0     0  0
  6  8  2  0     0  0
  7  9  2  0     0  0
  8 25  1  0     0  0
  9 23  1  0     0  0
 10 11  1  0     0  0
 10 12  1  0     0  0
 10 14  2  0     0  0
 11 15  2  0     0  0
 11 16  1  0     0  0
 12 17  2  0     0  0
 12 22  1  0     0  0
 13 18  2  0     0  0
 13 19  1  0     0  0
 13 24  1  0     0  0
 14 20  1  0     0  0
 15 18  1  0     0  0
 16 19  2  0     0  0
 17 21  1  0     0  0
 20 21  2  0     0  0
 25 26  1  0     0  0
 26 27  1  0     0  0
 27 28  1  0     0  0
M  END
> <standard_type>
pIC50

> <# Confs.>
25

> <canonical_smiles>
ClC(N=C1CCCC)=C(CO)N1CC2=CC=C(C3=CC=CC=C3C(O)=O)C=C2

> <standard_relation>
=

> <Publication_ID>
nan

> <predicted_activity_value>
5.0

> <actual_activity_value>
4.958607314841775

> <Compound>
20

> <standard_units>
nM

> hash
4469256553819631414

$$$$
20_
XXILIB    08252103513D 0   0.00000     0.00000

 28 30  0     1  0            999 V2000
    5.0074   -1.4914   -0.0122 Cl  0  0  0  0  0  1           0  0  0
   -0.3420   -2.5128    5.5965 O   0  0  0  0  0  2           0  0  0
   -2.4418   -3.3554    5.8753 O   0  0  0  0  0  2           0  0  0
    1.6390   -2.9308   -1.3457 O   0  0  0  0  0  2           0  0  0
    1.4523    0.0000    0.0000 N   0  0  0  0  0  3           0  0  0
    3.5393    0.7630   -0.0025 N   0  0  0  0  0  3           0  0  0
    3.5500   -0.6068   -0.0019 C   0  0  0  0  0  4           0  0  0
    2.2690    1.1150   -0.0000 C   0  0  0  0  0  4           0  0  0
    2.2653   -1.1171    0.0044 C   0  0  0  0  0  4           0  0  0
   -2.1342    0.0438    5.3886 C   0  0  0  0  0  4           0  0  0
   -1.5911    0.0286    4.0236 C   0  0  0  0  0  4           0  0  0
   -2.1342   -1.0800    6.2438 C   0  0  0  0  0  4           0  0  0
   -0.5425    0.0000    1.3966 C   0  0  0  0  0  4           0  0  0
   -2.7193    1.2260    5.8856 C   0  0  0  0  0  4           0  0  0
   -2.1116   -0.8395    3.0522 C   0  0  0  0  0  4           0  0  0
   -0.5409    0.8844    3.6602 C   0  0  0  0  0  4           0  0  0
   -2.7167   -1.0291    7.5185 C   0  0  0  0  0  4           0  0  0
   -1.5950   -0.8519    1.7533 C   0  0  0  0  0  4           0  0  0
   -0.0240    0.8721    2.3617 C   0  0  0  0  0  4           0  0  0
   -3.2883    1.2815    7.1615 C   0  0  0  0  0  4           0  0  0
   -3.2903    0.1538    7.9750 C   0  0  0  0  0  4           0  0  0
   -1.5209   -2.3660    5.8715 C   0  0  0  0  0  4           0  0  0
    1.7796   -2.5134    0.0058 C   0  0  0  0  0  4           0  0  0
   -0.0000    0.0000    0.0000 C   0  0  0  0  0  4           0  0  0
    1.7859    2.5228   -0.0017 C   0  0  0  0  0  4           0  0  0
    2.5417    3.3953   -0.9988 C   0  0  0  0  0  4           0  0  0
    2.0789    4.8521   -1.0356 C   0  0  0  0  0  4           0  0  0
    2.8532    5.6928   -2.0399 C   0  0  0  0  0  4           0  0  0
  1  7  1  0     0  0
  2 22  2  0     0  0
  3 22  1  0     0  0
  4 23  1  0     0  0
  5  8  1  0     0  0
  5  9  1  0     0  0
  5 24  1  0     0  0
  6  7  1  0     0  0
  6  8  2  0     0  0
  7  9  2  0     0  0
  8 25  1  0     0  0
  9 23  1  0     0  0
 10 11  1  0     0  0
 10 12  1  0     0  0
 10 14  2  0     0  0
 11 15  2  0     0  0
 11 16  1  0     0  0
 12 17  2  0     0  0
 12 22  1  0     0  0
 13 18  2  0     0  0
 13 19  1  0     0  0
 13 24  1  0     0  0
 14 20  1  0     0  0
 15 18  1  0     0  0
 16 19  2  0     0  0
 17 21  1  0     0  0
 20 21  2  0     0  0
 25 26  1  0     0  0
 26 27  1  0     0  0
 27 28  1  0     0  0
M  END
> <standard_type>
pIC50

> <# Confs.>
25

> <canonical_smiles>
ClC(N=C1CCCC)=C(CO)N1CC2=CC=C(C3=CC=CC=C3C(O)=O)C=C2

> <standard_relation>
=

> <Publication_ID>
nan

> <predicted_activity_value>
5.0

> <actual_activity_value>
4.958607314841775

> <Compound>
20

> <standard_units>
nM

> hash
4469256553819631414

$$$$
20_
XXILIB    08252103513D 0   0.00000     0.00000

 28 30  0     1  0            999 V2000
    5.0074    1.4914    0.0122 Cl  0  0  0  0  0  1           0  0  0
   -4.6018   -1.0254    3.9373 O   0  0  0  0  0  2           0  0  0
   -5.2861    0.9787    4.7809 O   0  0  0  0  0  2           0  0  0
    1.6390    2.9308    1.3457 O   0  0  0  0  0  2           0  0  0
    1.4523   -0.0000    0.0000 N   0  0  0  0  0  3           0  0  0
    3.5393   -0.7630    0.0025 N   0  0  0  0  0  3           0  0  0
    3.5500    0.6068    0.0019 C   0  0  0  0  0  4           0  0  0
    2.2690   -1.1150    0.0000 C   0  0  0  0  0  4           0  0  0
    2.2653    1.1171   -0.0044 C   0  0  0  0  0  4           0  0  0
   -2.0446   -0.0040    5.4234 C   0  0  0  0  0  4           0  0  0
   -1.5306   -0.0017    4.0471 C   0  0  0  0  0  4           0  0  0
   -3.4195   -0.0176    5.7457 C   0  0  0  0  0  4           0  0  0
   -0.5425    0.0000    1.3966 C   0  0  0  0  0  4           0  0  0
   -1.1355    0.0384    6.4998 C   0  0  0  0  0  4           0  0  0
   -1.2915    1.2039    3.3707 C   0  0  0  0  0  4           0  0  0
   -1.2647   -1.2060    3.3790 C   0  0  0  0  0  4           0  0  0
   -3.8595    0.0384    7.0761 C   0  0  0  0  0  4           0  0  0
   -0.8009    1.2048    2.0617 C   0  0  0  0  0  4           0  0  0
   -0.7743   -1.2055    2.0702 C   0  0  0  0  0  4           0  0  0
   -1.5732    0.0806    7.8271 C   0  0  0  0  0  4           0  0  0
   -2.9337    0.0847    8.1141 C   0  0  0  0  0  4           0  0  0
   -4.4774   -0.1029    4.7248 C   0  0  0  0  0  4           0  0  0
    1.7796    2.5134   -0.0058 C   0  0  0  0  0  4           0  0  0
    0.0000    0.0000    0.0000 C   0  0  0  0  0  4           0  0  0
    1.7859   -2.5228    0.0017 C   0  0  0  0  0  4           0  0  0
    2.5417   -3.3953    0.9988 C   0  0  0  0  0  4           0  0  0
    2.4334   -2.9280    2.4506 C   0  0  0  0  0  4           0  0  0
    3.1982   -3.8200    3.4171 C   0  0  0  0  0  4           0  0  0
  1  7  1  0     0  0
  2 22  2  0     0  0
  3 22  1  0     0  0
  4 23  1  0     0  0
  5  8  1  0     0  0
  5  9  1  0     0  0
  5 24  1  0     0  0
  6  7  1  0     0  0
  6  8  2  0     0  0
  7  9  2  0     0  0
  8 25  1  0     0  0
  9 23  1  0     0  0
 10 11  1  0     0  0
 10 12  1  0     0  0
 10 14  2  0     0  0
 11 15  2  0     0  0
 11 16  1  0     0  0
 12 17  2  0     0  0
 12 22  1  0     0  0
 13 18  2  0     0  0
 13 19  1  0     0  0
 13 24  1  0     0  0
 14 20  1  0     0  0
 15 18  1  0     0  0
 16 19  2  0     0  0
 17 21  1  0     0  0
 20 21  2  0     0  0
 25 26  1  0     0  0
 26 27  1  0     0  0
 27 28  1  0     0  0
M  END
> <standard_type>
pIC50

> <# Confs.>
25

> <canonical_smiles>
ClC(N=C1CCCC)=C(CO)N1CC2=CC=C(C3=CC=CC=C3C(O)=O)C=C2

> <standard_relation>
=

> <Publication_ID>
nan

> <predicted_activity_value>
5.0

> <actual_activity_value>
4.958607314841775

> <Compound>
20

> <standard_units>
nM

> hash
4469256553819631414

$$$$
20_
XXILIB    08252103513D 0   0.00000     0.00000

 28 30  0     1  0            999 V2000
    5.0074    1.4914    0.0122 Cl  0  0  0  0  0  1           0  0  0
   -4.7156    0.5693    3.8976 O   0  0  0  0  0  2           0  0  0
   -4.4169    2.4777    5.1081 O   0  0  0  0  0  2           0  0  0
    1.6390    2.9308    1.3457 O   0  0  0  0  0  2           0  0  0
    1.4523    0.0000    0.0000 N   0  0  0  0  0  3           0  0  0
    3.5393   -0.7630    0.0025 N   0  0  0  0  0  3           0  0  0
    3.5500    0.6068    0.0019 C   0  0  0  0  0  4           0  0  0
    2.2690   -1.1150    0.0000 C   0  0  0  0  0  4           0  0  0
    2.2653    1.1171   -0.0044 C   0  0  0  0  0  4           0  0  0
   -2.0446   -0.0040    5.4234 C   0  0  0  0  0  4           0  0  0
   -1.5306   -0.0017    4.0471 C   0  0  0  0  0  4           0  0  0
   -3.2781    0.5717    5.7995 C   0  0  0  0  0  4           0  0  0
   -0.5425    0.0000    1.3966 C   0  0  0  0  0  4           0  0  0
   -1.2689   -0.5815    6.4490 C   0  0  0  0  0  4           0  0  0
   -1.2915    1.2039    3.3707 C   0  0  0  0  0  4           0  0  0
   -1.2647   -1.2060    3.3790 C   0  0  0  0  0  4           0  0  0
   -3.6975    0.5933    7.1375 C   0  0  0  0  0  4           0  0  0
   -0.8009    1.2048    2.0617 C   0  0  0  0  0  4           0  0  0
   -0.7743   -1.2055    2.0702 C   0  0  0  0  0  4           0  0  0
   -1.6926   -0.5725    7.7814 C   0  0  0  0  0  4           0  0  0
   -2.9036    0.0180    8.1252 C   0  0  0  0  0  4           0  0  0
   -4.2076    1.1721    4.8278 C   0  0  0  0  0  4           0  0  0
    1.7796    2.5134   -0.0058 C   0  0  0  0  0  4           0  0  0
    0.0000    0.0000    0.0000 C   0  0  0  0  0  4           0  0  0
    1.7859   -2.5228    0.0017 C   0  0  0  0  0  4           0  0  0
    2.5394   -3.3969   -0.9956 C   0  0  0  0  0  4           0  0  0
    2.4278   -2.9321   -2.4480 C   0  0  0  0  0  4           0  0  0
    0.9921   -2.9042   -2.9508 C   0  0  0  0  0  4           0  0  0
  1  7  1  0     0  0
  2 22  2  0     0  0
  3 22  1  0     0  0
  4 23  1  0     0  0
  5  8  1  0     0  0
  5  9  1  0     0  0
  5 24  1  0     0  0
  6  7  1  0     0  0
  6  8  2  0     0  0
  7  9  2  0     0  0
  8 25  1  0     0  0
  9 23  1  0     0  0
 10 11  1  0     0  0
 10 12  1  0     0  0
 10 14  2  0     0  0
 11 15  2  0     0  0
 11 16  1  0     0  0
 12 17  2  0     0  0
 12 22  1  0     0  0
 13 18  2  0     0  0
 13 19  1  0     0  0
 13 24  1  0     0  0
 14 20  1  0     0  0
 15 18  1  0     0  0
 16 19  2  0     0  0
 17 21  1  0     0  0
 20 21  2  0     0  0
 25 26  1  0     0  0
 26 27  1  0     0  0
 27 28  1  0     0  0
M  END
> <standard_type>
pIC50

> <# Confs.>
25

> <canonical_smiles>
ClC(N=C1CCCC)=C(CO)N1CC2=CC=C(C3=CC=CC=C3C(O)=O)C=C2

> <standard_relation>
=

> <Publication_ID>
nan

> <predicted_activity_value>
5.0

> <actual_activity_value>
4.958607314841775

> <Compound>
20

> <standard_units>
nM

> hash
4469256553819631414

$$$$
20_
XXILIB    08252103513D 0   0.00000     0.00000

 28 30  0     1  0            999 V2000
    5.0074   -1.4914   -0.0122 Cl  0  0  0  0  0  1           0  0  0
   -4.6018   -1.0254    3.9373 O   0  0  0  0  0  2           0  0  0
   -5.2861    0.9787    4.7809 O   0  0  0  0  0  2           0  0  0
    0.7351   -2.6159   -0.9528 O   0  0  0  0  0  2           0  0  0
    1.4523    0.0000    0.0000 N   0  0  0  0  0  3           0  0  0
    3.5393    0.7630   -0.0025 N   0  0  0  0  0  3           0  0  0
    3.5500   -0.6068   -0.0019 C   0  0  0  0  0  4           0  0  0
    2.2690    1.1150   -0.0000 C   0  0  0  0  0  4           0  0  0
    2.2653   -1.1171    0.0044 C   0  0  0  0  0  4           0  0  0
   -2.0446   -0.0040    5.4234 C   0  0  0  0  0  4           0  0  0
   -1.5306   -0.0017    4.0471 C   0  0  0  0  0  4           0  0  0
   -3.4195   -0.0176    5.7457 C   0  0  0  0  0  4           0  0  0
   -0.5425    0.0000    1.3966 C   0  0  0  0  0  4           0  0  0
   -1.1355    0.0384    6.4998 C   0  0  0  0  0  4           0  0  0
   -1.2915    1.2039    3.3707 C   0  0  0  0  0  4           0  0  0
   -1.2647   -1.2060    3.3790 C   0  0  0  0  0  4           0  0  0
   -3.8595    0.0384    7.0761 C   0  0  0  0  0  4           0  0  0
   -0.8009    1.2048    2.0617 C   0  0  0  0  0  4           0  0  0
   -0.7743   -1.2055    2.0702 C   0  0  0  0  0  4           0  0  0
   -1.5732    0.0806    7.8271 C   0  0  0  0  0  4           0  0  0
   -2.9337    0.0847    8.1141 C   0  0  0  0  0  4           0  0  0
   -4.4774   -0.1029    4.7248 C   0  0  0  0  0  4           0  0  0
    1.7796   -2.5134    0.0058 C   0  0  0  0  0  4           0  0  0
    0.0000    0.0000    0.0000 C   0  0  0  0  0  4           0  0  0
    1.7859    2.5228   -0.0017 C   0  0  0  0  0  4           0  0  0
    2.5417    3.3953   -0.9988 C   0  0  0  0  0  4           0  0  0
    2.0789    4.8521   -1.0356 C   0  0  0  0  0  4           0  0  0
    2.8532    5.6928   -2.0399 C   0  0  0  0  0  4           0  0  0
  1  7  1  0     0  0
  2 22  2  0     0  0
  3 22  1  0     0  0
  4 23  1  0     0  0
  5  8  1  0     0  0
  5  9  1  0     0  0
  5 24  1  0     0  0
  6  7  1  0     0  0
  6  8  2  0     0  0
  7  9  2  0     0  0
  8 25  1  0     0  0
  9 23  1  0     0  0
 10 11  1  0     0  0
 10 12  1  0     0  0
 10 14  2  0     0  0
 11 15  2  0     0  0
 11 16  1  0     0  0
 12 17  2  0     0  0
 12 22  1  0     0  0
 13 18  2  0     0  0
 13 19  1  0     0  0
 13 24  1  0     0  0
 14 20  1  0     0  0
 15 18  1  0     0  0
 16 19  2  0     0  0
 17 21  1  0     0  0
 20 21  2  0     0  0
 25 26  1  0     0  0
 26 27  1  0     0  0
 27 28  1  0     0  0
M  END
> <standard_type>
pIC50

> <# Confs.>
25

> <canonical_smiles>
ClC(N=C1CCCC)=C(CO)N1CC2=CC=C(C3=CC=CC=C3C(O)=O)C=C2

> <standard_relation>
=

> <Publication_ID>
nan

> <predicted_activity_value>
5.0

> <actual_activity_value>
4.958607314841775

> <Compound>
20

> <standard_units>
nM

> hash
4469256553819631414

$$$$
20_
XXILIB    08252103513D 0   0.00000     0.00000

 28 30  0     1  0            999 V2000
    5.0074    1.4914    0.0122 Cl  0  0  0  0  0  1           0  0  0
    0.9600   -0.7200    5.9247 O   0  0  0  0  0  2           0  0  0
    0.6999    1.1956    7.1327 O   0  0  0  0  0  2           0  0  0
    1.6390    2.9308    1.3457 O   0  0  0  0  0  2           0  0  0
    1.4523    0.0000    0.0000 N   0  0  0  0  0  3           0  0  0
    3.5393   -0.7630    0.0025 N   0  0  0  0  0  3           0  0  0
    3.5500    0.6068    0.0019 C   0  0  0  0  0  4           0  0  0
    2.2690   -1.1150    0.0000 C   0  0  0  0  0  4           0  0  0
    2.2653    1.1171   -0.0044 C   0  0  0  0  0  4           0  0  0
   -2.0446   -0.0040    5.4234 C   0  0  0  0  0  4           0  0  0
   -1.5306   -0.0017    4.0471 C   0  0  0  0  0  4           0  0  0
   -1.2174    0.0071    6.5680 C   0  0  0  0  0  4           0  0  0
   -0.5425    0.0000    1.3966 C   0  0  0  0  0  4           0  0  0
   -3.4366   -0.0486    5.6404 C   0  0  0  0  0  4           0  0  0
   -1.2915    1.2039    3.3707 C   0  0  0  0  0  4           0  0  0
   -1.2647   -1.2060    3.3790 C   0  0  0  0  0  4           0  0  0
   -1.7571   -0.0533    7.8611 C   0  0  0  0  0  4           0  0  0
   -0.8009    1.2048    2.0617 C   0  0  0  0  0  4           0  0  0
   -0.7743   -1.2055    2.0702 C   0  0  0  0  0  4           0  0  0
   -3.9760   -0.0952    6.9295 C   0  0  0  0  0  4           0  0  0
   -3.1366   -0.1017    8.0380 C   0  0  0  0  0  4           0  0  0
    0.2506    0.0942    6.4908 C   0  0  0  0  0  4           0  0  0
    1.7796    2.5134   -0.0058 C   0  0  0  0  0  4           0  0  0
    0.0000    0.0000    0.0000 C   0  0  0  0  0  4           0  0  0
    1.7859   -2.5228    0.0017 C   0  0  0  0  0  4           0  0  0
    2.5394   -3.3969   -0.9956 C   0  0  0  0  0  4           0  0  0
    2.4278   -2.9321   -2.4480 C   0  0  0  0  0  4           0  0  0
    3.1904   -3.8258   -3.4146 C   0  0  0  0  0  4           0  0  0
  1  7  1  0     0  0
  2 22  2  0     0  0
  3 22  1  0     0  0
  4 23  1  0     0  0
  5  8  1  0     0  0
  5  9  1  0     0  0
  5 24  1  0     0  0
  6  7  1  0     0  0
  6  8  2  0     0  0
  7  9  2  0     0  0
  8 25  1  0     0  0
  9 23  1  0     0  0
 10 11  1  0     0  0
 10 12  1  0     0  0
 10 14  2  0     0  0
 11 15  2  0     0  0
 11 16  1  0     0  0
 12 17  2  0     0  0
 12 22  1  0     0  0
 13 18  2  0     0  0
 13 19  1  0     0  0
 13 24  1  0     0  0
 14 20  1  0     0  0
 15 18  1  0     0  0
 16 19  2  0     0  0
 17 21  1  0     0  0
 20 21  2  0     0  0
 25 26  1  0     0  0
 26 27  1  0     0  0
 27 28  1  0     0  0
M  END
> <standard_type>
pIC50

> <# Confs.>
25

> <canonical_smiles>
ClC(N=C1CCCC)=C(CO)N1CC2=CC=C(C3=CC=CC=C3C(O)=O)C=C2

> <standard_relation>
=

> <Publication_ID>
nan

> <predicted_activity_value>
5.0

> <actual_activity_value>
4.958607314841775

> <Compound>
20

> <standard_units>
nM

> hash
4469256553819631414

$$$$
20_
XXILIB    08252103513D 0   0.00000     0.00000

 28 30  0     1  0            999 V2000
    5.0074    1.4914    0.0122 Cl  0  0  0  0  0  1           0  0  0
    0.9600   -0.7200    5.9247 O   0  0  0  0  0  2           0  0  0
    0.6999    1.1956    7.1327 O   0  0  0  0  0  2           0  0  0
    1.6390    2.9308    1.3457 O   0  0  0  0  0  2           0  0  0
    1.4523    0.0000    0.0000 N   0  0  0  0  0  3           0  0  0
    3.5393   -0.7630    0.0025 N   0  0  0  0  0  3           0  0  0
    3.5500    0.6068    0.0019 C   0  0  0  0  0  4           0  0  0
    2.2690   -1.1150    0.0000 C   0  0  0  0  0  4           0  0  0
    2.2653    1.1171   -0.0044 C   0  0  0  0  0  4           0  0  0
   -2.0446   -0.0040    5.4234 C   0  0  0  0  0  4           0  0  0
   -1.5306   -0.0017    4.0471 C   0  0  0  0  0  4           0  0  0
   -1.2174    0.0071    6.5680 C   0  0  0  0  0  4           0  0  0
   -0.5425    0.0000    1.3966 C   0  0  0  0  0  4           0  0  0
   -3.4366   -0.0486    5.6404 C   0  0  0  0  0  4           0  0  0
   -1.2915    1.2039    3.3707 C   0  0  0  0  0  4           0  0  0
   -1.2647   -1.2060    3.3790 C   0  0  0  0  0  4           0  0  0
   -1.7571   -0.0533    7.8611 C   0  0  0  0  0  4           0  0  0
   -0.8009    1.2048    2.0617 C   0  0  0  0  0  4           0  0  0
   -0.7743   -1.2055    2.0702 C   0  0  0  0  0  4           0  0  0
   -3.9760   -0.0952    6.9295 C   0  0  0  0  0  4           0  0  0
   -3.1366   -0.1017    8.0380 C   0  0  0  0  0  4           0  0  0
    0.2506    0.0942    6.4908 C   0  0  0  0  0  4           0  0  0
    1.7796    2.5134   -0.0058 C   0  0  0  0  0  4           0  0  0
    0.0000    0.0000    0.0000 C   0  0  0  0  0  4           0  0  0
    1.7859   -2.5228    0.0017 C   0  0  0  0  0  4           0  0  0
    2.5394   -3.3969   -0.9956 C   0  0  0  0  0  4           0  0  0
    2.0766   -4.8538   -1.0289 C   0  0  0  0  0  4           0  0  0
    2.8486   -5.6962   -2.0335 C   0  0  0  0  0  4           0  0  0
  1  7  1  0     0  0
  2 22  2  0     0  0
  3 22  1  0     0  0
  4 23  1  0     0  0
  5  8  1  0     0  0
  5  9  1  0     0  0
  5 24  1  0     0  0
  6  7  1  0     0  0
  6  8  2  0     0  0
  7  9  2  0     0  0
  8 25  1  0     0  0
  9 23  1  0     0  0
 10 11  1  0     0  0
 10 12  1  0     0  0
 10 14  2  0     0  0
 11 15  2  0     0  0
 11 16  1  0     0  0
 12 17  2  0     0  0
 12 22  1  0     0  0
 13 18  2  0     0  0
 13 19  1  0     0  0
 13 24  1  0     0  0
 14 20  1  0     0  0
 15 18  1  0     0  0
 16 19  2  0     0  0
 17 21  1  0     0  0
 20 21  2  0     0  0
 25 26  1  0     0  0
 26 27  1  0     0  0
 27 28  1  0     0  0
M  END
> <standard_type>
pIC50

> <# Confs.>
25

> <canonical_smiles>
ClC(N=C1CCCC)=C(CO)N1CC2=CC=C(C3=CC=CC=C3C(O)=O)C=C2

> <standard_relation>
=

> <Publication_ID>
nan

> <predicted_activity_value>
5.0

> <actual_activity_value>
4.958607314841775

> <Compound>
20

> <standard_units>
nM

> hash
4469256553819631414

$$$$
20_
XXILIB    08252103513D 0   0.00000     0.00000

 28 30  0     1  0            999 V2000
    5.0074    1.4914    0.0122 Cl  0  0  0  0  0  1           0  0  0
   -4.7156    0.5693    3.8976 O   0  0  0  0  0  2           0  0  0
   -4.4169    2.4777    5.1081 O   0  0  0  0  0  2           0  0  0
    1.6390    2.9308    1.3457 O   0  0  0  0  0  2           0  0  0
    1.4523    0.0000    0.0000 N   0  0  0  0  0  3           0  0  0
    3.5393   -0.7630    0.0025 N   0  0  0  0  0  3           0  0  0
    3.5500    0.6068    0.0019 C   0  0  0  0  0  4           0  0  0
    2.2690   -1.1150    0.0000 C   0  0  0  0  0  4           0  0  0
    2.2653    1.1171   -0.0044 C   0  0  0  0  0  4           0  0  0
   -2.0446   -0.0040    5.4234 C   0  0  0  0  0  4           0  0  0
   -1.5306   -0.0017    4.0471 C   0  0  0  0  0  4           0  0  0
   -3.2781    0.5717    5.7995 C   0  0  0  0  0  4           0  0  0
   -0.5425    0.0000    1.3966 C   0  0  0  0  0  4           0  0  0
   -1.2689   -0.5815    6.4490 C   0  0  0  0  0  4           0  0  0
   -1.2915    1.2039    3.3707 C   0  0  0  0  0  4           0  0  0
   -1.2647   -1.2060    3.3790 C   0  0  0  0  0  4           0  0  0
   -3.6975    0.5933    7.1375 C   0  0  0  0  0  4           0  0  0
   -0.8009    1.2048    2.0617 C   0  0  0  0  0  4           0  0  0
   -0.7743   -1.2055    2.0702 C   0  0  0  0  0  4           0  0  0
   -1.6926   -0.5725    7.7814 C   0  0  0  0  0  4           0  0  0
   -2.9036    0.0180    8.1252 C   0  0  0  0  0  4           0  0  0
   -4.2076    1.1721    4.8278 C   0  0  0  0  0  4           0  0  0
    1.7796    2.5134   -0.0058 C   0  0  0  0  0  4           0  0  0
    0.0000    0.0000    0.0000 C   0  0  0  0  0  4           0  0  0
    1.7859   -2.5228    0.0017 C   0  0  0  0  0  4           0  0  0
    2.9313   -3.5301    0.0013 C   0  0  0  0  0  4           0  0  0
    2.4822   -4.9917    0.0030 C   0  0  0  0  0  4           0  0  0
    3.6489   -5.9683    0.0025 C   0  0  0  0  0  4           0  0  0
  1  7  1  0     0  0
  2 22  2  0     0  0
  3 22  1  0     0  0
  4 23  1  0     0  0
  5  8  1  0     0  0
  5  9  1  0     0  0
  5 24  1  0     0  0
  6  7  1  0     0  0
  6  8  2  0     0  0
  7  9  2  0     0  0
  8 25  1  0     0  0
  9 23  1  0     0  0
 10 11  1  0     0  0
 10 12  1  0     0  0
 10 14  2  0     0  0
 11 15  2  0     0  0
 11 16  1  0     0  0
 12 17  2  0     0  0
 12 22  1  0     0  0
 13 18  2  0     0  0
 13 19  1  0     0  0
 13 24  1  0     0  0
 14 20  1  0     0  0
 15 18  1  0     0  0
 16 19  2  0     0  0
 17 21  1  0     0  0
 20 21  2  0     0  0
 25 26  1  0     0  0
 26 27  1  0     0  0
 27 28  1  0     0  0
M  END
> <standard_type>
pIC50

> <# Confs.>
25

> <canonical_smiles>
ClC(N=C1CCCC)=C(CO)N1CC2=CC=C(C3=CC=CC=C3C(O)=O)C=C2

> <standard_relation>
=

> <Publication_ID>
nan

> <predicted_activity_value>
5.0

> <actual_activity_value>
4.958607314841775

> <Compound>
20

> <standard_units>
nM

> hash
4469256553819631414

$$$$
4_
XXILIB    08252103513D 0   0.00000     0.00000

 29 32  0     1  0            999 V2000
    0.7645   -2.8634    0.1940 O   0  0  0  0  0  2           0  0  0
    0.5683   -3.4931    6.4606 N   0  0  0  0  0  3           0  0  0
    1.0990   -2.7011    5.5389 N   0  0  0  0  0  3           0  0  0
   -0.5442   -2.8635    6.8608 N   0  0  0  0  0  3           0  0  0
    0.3308   -1.5752    5.3517 N   0  0  0  0  0  3           0  0  0
    1.4767   -0.0000    0.0000 N   0  3  0  0  0  4           0  0  0
    3.6261    0.6348   -0.2220 N   0  0  0  0  0  3           0  0  0
   -0.6892   -1.6852    6.1799 C   0  0  0  0  0  4           0  0  0
   -1.7852   -0.7669    6.3709 C   0  0  0  0  0  4           0  0  0
   -2.2609    0.0561    5.3246 C   0  0  0  0  0  4           0  0  0
   -1.6848    0.0340    3.9858 C   0  0  0  0  0  4           0  0  0
   -0.5728    0.0000    1.3850 C   0  0  0  0  0  4           0  0  0
   -2.3775   -0.6948    7.6424 C   0  0  0  0  0  4           0  0  0
   -3.3317    0.9300    5.5933 C   0  0  0  0  0  4           0  0  0
   -2.1811   -0.8368    3.0043 C   0  0  0  0  0  4           0  0  0
   -0.6246    0.8877    3.6469 C   0  0  0  0  0  4           0  0  0
   -1.6329   -0.8520    1.7186 C   0  0  0  0  0  4           0  0  0
   -0.0763    0.8724    2.3614 C   0  0  0  0  0  4           0  0  0
   -3.4362    0.1790    7.8840 C   0  0  0  0  0  4           0  0  0
   -3.9133    0.9904    6.8605 C   0  0  0  0  0  4           0  0  0
    2.1164   -2.4162    0.1700 C   0  0  0  0  0  4           0  0  0
    2.2979    0.8580   -0.4953 C   0  0  0  0  0  4           0  0  0
    3.6384   -0.4363    0.5016 C   0  0  0  0  0  4           0  0  0
    0.0000    0.0000    0.0000 C   0  0  0  0  0  4           0  0  0
    2.2695   -1.0188    0.7464 C   0  0  1  0  0  4           0  0  0
    1.8632    2.0530   -1.2713 C   0  0  0  0  0  4           0  0  0
    1.7716    1.7262   -2.7575 C   0  0  0  0  0  4           0  0  0
    1.3294    2.9189   -3.5998 C   0  0  0  0  0  4           0  0  0
    1.2378    2.5932   -5.0831 C   0  0  0  0  0  4           0  0  0
  1 21  1  0     0  0
  2  3  2  0     0  0
  2  4  1  0     0  0
  3  5  1  0     0  0
  4  8  1  0     0  0
  5  8  2  0     0  0
  6 22  2  0     0  0
  6 24  1  0     0  0
  6 25  1  0     0  0
  7 22  1  0     0  0
  7 23  2  0     0  0
  8  9  1  0     0  0
  9 10  1  0     0  0
  9 13  2  0     0  0
 10 11  1  0     0  0
 10 14  2  0     0  0
 11 15  2  0     0  0
 11 16  1  0     0  0
 12 17  2  0     0  0
 12 18  1  0     0  0
 12 24  1  0     0  0
 13 19  1  0     0  0
 14 20  1  0     0  0
 15 17  1  0     0  0
 16 18  2  0     0  0
 19 20  2  0     0  0
 21 25  1  0     0  0
 22 26  1  0     0  0
 23 25  1  0     0  0
 26 27  1  0     0  0
 27 28  1  0     0  0
 28 29  1  0     0  0
M  CHG  1   6   1
M  END
> <standard_type>
pIC50

> <# Confs.>
25

> <canonical_smiles>
CCCCC(N=CC1CO)=[N]1CC2=CC=C(C3=CC=CC=C3C4=NN=NN4)C=C2

> <standard_relation>
=

> <Publication_ID>
nan

> <predicted_activity_value>
7.823908740944319

> <actual_activity_value>
7.5376020021010435

> <Compound>
4

> <standard_units>
nM

> hash
11930142815789539851

$$$$
4_
XXILIB    08252103513D 0   0.00000     0.00000

 29 32  0     1  0            999 V2000
    1.8066    2.3833   -1.2730 O   0  0  0  0  0  2           0  0  0
    2.2534   -0.3551    6.9478 N   0  0  0  0  0  3           0  0  0
    2.1811    0.3040    5.7995 N   0  0  0  0  0  3           0  0  0
    0.9812   -0.5299    7.3287 N   0  0  0  0  0  3           0  0  0
    0.8730    0.5474    5.4497 N   0  0  0  0  0  3           0  0  0
    1.4768   -0.0000   -0.0000 N   0  3  0  0  0  4           0  0  0
    3.6330   -0.6003   -0.2547 N   0  0  0  0  0  3           0  0  0
    0.1337    0.0254    6.4085 C   0  0  0  0  0  4           0  0  0
   -1.3047    0.0092    6.5162 C   0  0  0  0  0  4           0  0  0
   -2.1389   -0.0014    5.3750 C   0  0  0  0  0  4           0  0  0
   -1.6098   -0.0004    4.0168 C   0  0  0  0  0  4           0  0  0
   -0.5728   -0.0000    1.3850 C   0  0  0  0  0  4           0  0  0
   -1.8748    0.0149    7.7999 C   0  0  0  0  0  4           0  0  0
   -3.5340   -0.0114    5.5648 C   0  0  0  0  0  4           0  0  0
   -1.3598    1.2049    3.3440 C   0  0  0  0  0  4           0  0  0
   -1.3330   -1.2052    3.3539 C   0  0  0  0  0  4           0  0  0
   -0.8455    1.2049    2.0443 C   0  0  0  0  0  4           0  0  0
   -0.8188   -1.2052    2.0543 C   0  0  0  0  0  4           0  0  0
   -3.2591    0.0053    7.9619 C   0  0  0  0  0  4           0  0  0
   -4.0882   -0.0083    6.8457 C   0  0  0  0  0  4           0  0  0
    2.0784    2.4282    0.1243 C   0  0  0  0  0  4           0  0  0
    2.3036   -0.8545   -0.4934 C   0  0  0  0  0  4           0  0  0
    3.6405    0.4811    0.4535 C   0  0  0  0  0  4           0  0  0
    0.0000    0.0000    0.0000 C   0  0  0  0  0  4           0  0  0
    2.2664    1.0423    0.7177 C   0  0  1  0  0  4           0  0  0
    1.8824   -2.0359   -1.2978 C   0  0  0  0  0  4           0  0  0
    1.8234   -1.6849   -2.7802 C   0  0  0  0  0  4           0  0  0
    1.3963   -2.8625   -3.6508 C   0  0  0  0  0  4           0  0  0
    1.3372   -2.5127   -5.1303 C   0  0  0  0  0  4           0  0  0
  1 21  1  0     0  0
  2  3  2  0     0  0
  2  4  1  0     0  0
  3  5  1  0     0  0
  4  8  1  0     0  0
  5  8  2  0     0  0
  6 22  2  0     0  0
  6 24  1  0     0  0
  6 25  1  0     0  0
  7 22  1  0     0  0
  7 23  2  0     0  0
  8  9  1  0     0  0
  9 10  1  0     0  0
  9 13  2  0     0  0
 10 11  1  0     0  0
 10 14  2  0     0  0
 11 15  2  0     0  0
 11 16  1  0     0  0
 12 17  2  0     0  0
 12 18  1  0     0  0
 12 24  1  0     0  0
 13 19  1  0     0  0
 14 20  1  0     0  0
 15 17  1  0     0  0
 16 18  2  0     0  0
 19 20  2  0     0  0
 21 25  1  0     0  0
 22 26  1  0     0  0
 23 25  1  0     0  0
 26 27  1  0     0  0
 27 28  1  0     0  0
 28 29  1  0     0  0
M  CHG  1   6   1
M  END
> <standard_type>
pIC50

> <# Confs.>
25

> <canonical_smiles>
CCCCC(N=CC1CO)=[N]1CC2=CC=C(C3=CC=CC=C3C4=NN=NN4)C=C2

> <standard_relation>
=

> <Publication_ID>
nan

> <predicted_activity_value>
7.823908740944319

> <actual_activity_value>
7.5376020021010435

> <Compound>
4

> <standard_units>
nM

> hash
11930142815789539851

$$$$
4_
XXILIB    08252103513D 0   0.00000     0.00000

 29 32  0     1  0            999 V2000
    2.4802    2.4884   -1.2407 O   0  0  0  0  0  2           0  0  0
    2.2534   -0.3551    6.9478 N   0  0  0  0  0  3           0  0  0
    2.1811    0.3040    5.7995 N   0  0  0  0  0  3           0  0  0
    0.9812   -0.5299    7.3287 N   0  0  0  0  0  3           0  0  0
    0.8730    0.5474    5.4497 N   0  0  0  0  0  3           0  0  0
    1.4768   -0.0000   -0.0000 N   0  3  0  0  0  4           0  0  0
    3.6330   -0.6003   -0.2547 N   0  0  0  0  0  3           0  0  0
    0.1337    0.0254    6.4085 C   0  0  0  0  0  4           0  0  0
   -1.3047    0.0092    6.5162 C   0  0  0  0  0  4           0  0  0
   -2.1389   -0.0014    5.3750 C   0  0  0  0  0  4           0  0  0
   -1.6098   -0.0004    4.0168 C   0  0  0  0  0  4           0  0  0
   -0.5728   -0.0000    1.3850 C   0  0  0  0  0  4           0  0  0
   -1.8748    0.0149    7.7999 C   0  0  0  0  0  4           0  0  0
   -3.5340   -0.0114    5.5648 C   0  0  0  0  0  4           0  0  0
   -1.3598    1.2049    3.3440 C   0  0  0  0  0  4           0  0  0
   -1.3330   -1.2052    3.3539 C   0  0  0  0  0  4           0  0  0
   -0.8455    1.2049    2.0443 C   0  0  0  0  0  4           0  0  0
   -0.8188   -1.2052    2.0543 C   0  0  0  0  0  4           0  0  0
   -3.2591    0.0053    7.9619 C   0  0  0  0  0  4           0  0  0
   -4.0882   -0.0083    6.8457 C   0  0  0  0  0  4           0  0  0
    2.0784    2.4282    0.1243 C   0  0  0  0  0  4           0  0  0
    2.3036   -0.8545   -0.4934 C   0  0  0  0  0  4           0  0  0
    3.6405    0.4811    0.4535 C   0  0  0  0  0  4           0  0  0
    0.0000    0.0000    0.0000 C   0  0  0  0  0  4           0  0  0
    2.2664    1.0423    0.7177 C   0  0  1  0  0  4           0  0  0
    1.8824   -2.0359   -1.2978 C   0  0  0  0  0  4           0  0  0
    1.6370   -3.2411   -0.3970 C   0  0  0  0  0  4           0  0  0
    1.2024   -4.4810   -1.1725 C   0  0  0  0  0  4           0  0  0
    0.9573   -5.6841   -0.2740 C   0  0  0  0  0  4           0  0  0
  1 21  1  0     0  0
  2  3  2  0     0  0
  2  4  1  0     0  0
  3  5  1  0     0  0
  4  8  1  0     0  0
  5  8  2  0     0  0
  6 22  2  0     0  0
  6 24  1  0     0  0
  6 25  1  0     0  0
  7 22  1  0     0  0
  7 23  2  0     0  0
  8  9  1  0     0  0
  9 10  1  0     0  0
  9 13  2  0     0  0
 10 11  1  0     0  0
 10 14  2  0     0  0
 11 15  2  0     0  0
 11 16  1  0     0  0
 12 17  2  0     0  0
 12 18  1  0     0  0
 12 24  1  0     0  0
 13 19  1  0     0  0
 14 20  1  0     0  0
 15 17  1  0     0  0
 16 18  2  0     0  0
 19 20  2  0     0  0
 21 25  1  0     0  0
 22 26  1  0     0  0
 23 25  1  0     0  0
 26 27  1  0     0  0
 27 28  1  0     0  0
 28 29  1  0     0  0
M  CHG  1   6   1
M  END
> <standard_type>
pIC50

> <# Confs.>
25

> <canonical_smiles>
CCCCC(N=CC1CO)=[N]1CC2=CC=C(C3=CC=CC=C3C4=NN=NN4)C=C2

> <standard_relation>
=

> <Publication_ID>
nan

> <predicted_activity_value>
7.823908740944319

> <actual_activity_value>
7.5376020021010435

> <Compound>
4

> <standard_units>
nM

> hash
11930142815789539851

$$$$
4_
XXILIB    08252103513D 0   0.00000     0.00000

 29 32  0     1  0            999 V2000
    1.0342   -3.1275    0.7626 O   0  0  0  0  0  2           0  0  0
    0.5683   -3.4931    6.4606 N   0  0  0  0  0  3           0  0  0
    1.0990   -2.7011    5.5389 N   0  0  0  0  0  3           0  0  0
   -0.5442   -2.8635    6.8608 N   0  0  0  0  0  3           0  0  0
    0.3308   -1.5752    5.3517 N   0  0  0  0  0  3           0  0  0
    1.4767   -0.0000    0.0000 N   0  3  0  0  0  4           0  0  0
    3.6261    0.6348   -0.2220 N   0  0  0  0  0  3           0  0  0
   -0.6892   -1.6852    6.1799 C   0  0  0  0  0  4           0  0  0
   -1.7852   -0.7669    6.3709 C   0  0  0  0  0  4           0  0  0
   -2.2609    0.0561    5.3246 C   0  0  0  0  0  4           0  0  0
   -1.6848    0.0340    3.9858 C   0  0  0  0  0  4           0  0  0
   -0.5728    0.0000    1.3850 C   0  0  0  0  0  4           0  0  0
   -2.3775   -0.6948    7.6424 C   0  0  0  0  0  4           0  0  0
   -3.3317    0.9300    5.5933 C   0  0  0  0  0  4           0  0  0
   -2.1811   -0.8368    3.0043 C   0  0  0  0  0  4           0  0  0
   -0.6246    0.8877    3.6469 C   0  0  0  0  0  4           0  0  0
   -1.6329   -0.8520    1.7186 C   0  0  0  0  0  4           0  0  0
   -0.0763    0.8724    2.3614 C   0  0  0  0  0  4           0  0  0
   -3.4362    0.1790    7.8840 C   0  0  0  0  0  4           0  0  0
   -3.9133    0.9904    6.8605 C   0  0  0  0  0  4           0  0  0
    2.1164   -2.4162    0.1700 C   0  0  0  0  0  4           0  0  0
    2.2979    0.8580   -0.4953 C   0  0  0  0  0  4           0  0  0
    3.6384   -0.4363    0.5016 C   0  0  0  0  0  4           0  0  0
    0.0000    0.0000    0.0000 C   0  0  0  0  0  4           0  0  0
    2.2695   -1.0188    0.7464 C   0  0  1  0  0  4           0  0  0
    1.8632    2.0530   -1.2713 C   0  0  0  0  0  4           0  0  0
    1.6403    3.2441   -0.3461 C   0  0  0  0  0  4           0  0  0
    1.1928    4.4974   -1.0920 C   0  0  0  0  0  4           0  0  0
    0.9703    5.6864   -0.1692 C   0  0  0  0  0  4           0  0  0
  1 21  1  0     0  0
  2  3  2  0     0  0
  2  4  1  0     0  0
  3  5  1  0     0  0
  4  8  1  0     0  0
  5  8  2  0     0  0
  6 22  2  0     0  0
  6 24  1  0     0  0
  6 25  1  0     0  0
  7 22  1  0     0  0
  7 23  2  0     0  0
  8  9  1  0     0  0
  9 10  1  0     0  0
  9 13  2  0     0  0
 10 11  1  0     0  0
 10 14  2  0     0  0
 11 15  2  0     0  0
 11 16  1  0     0  0
 12 17  2  0     0  0
 12 18  1  0     0  0
 12 24  1  0     0  0
 13 19  1  0     0  0
 14 20  1  0     0  0
 15 17  1  0     0  0
 16 18  2  0     0  0
 19 20  2  0     0  0
 21 25  1  0     0  0
 22 26  1  0     0  0
 23 25  1  0     0  0
 26 27  1  0     0  0
 27 28  1  0     0  0
 28 29  1  0     0  0
M  CHG  1   6   1
M  END
> <standard_type>
pIC50

> <# Confs.>
25

> <canonical_smiles>
CCCCC(N=CC1CO)=[N]1CC2=CC=C(C3=CC=CC=C3C4=NN=NN4)C=C2

> <standard_relation>
=

> <Publication_ID>
nan

> <predicted_activity_value>
7.823908740944319

> <actual_activity_value>
7.5376020021010435

> <Compound>
4

> <standard_units>
nM

> hash
11930142815789539851

$$$$
4_
XXILIB    08252103513D 0   0.00000     0.00000

 29 32  0     1  0            999 V2000
    2.4802    2.4884   -1.2407 O   0  0  0  0  0  2           0  0  0
    0.4968    3.5581    6.4353 N   0  0  0  0  0  3           0  0  0
    1.0444    2.7696    5.5206 N   0  0  0  0  0  3           0  0  0
   -0.6046    2.9107    6.8376 N   0  0  0  0  0  3           0  0  0
    0.2988    1.6274    5.3410 N   0  0  0  0  0  3           0  0  0
    1.4768   -0.0000   -0.0000 N   0  3  0  0  0  4           0  0  0
    3.6330   -0.6003   -0.2547 N   0  0  0  0  0  3           0  0  0
   -0.7262    1.7252    6.1646 C   0  0  0  0  0  4           0  0  0
   -1.8023    0.7854    6.3638 C   0  0  0  0  0  4           0  0  0
   -2.2627   -0.0541    5.3238 C   0  0  0  0  0  4           0  0  0
   -1.6853   -0.0335    3.9856 C   0  0  0  0  0  4           0  0  0
   -0.5728   -0.0000    1.3850 C   0  0  0  0  0  4           0  0  0
   -2.4046    0.7241    7.6312 C   0  0  0  0  0  4           0  0  0
   -3.3216   -0.9408    5.5975 C   0  0  0  0  0  4           0  0  0
   -0.6065   -0.8672    3.6556 C   0  0  0  0  0  4           0  0  0
   -2.1996    0.8168    2.9954 C   0  0  0  0  0  4           0  0  0
   -0.0582   -0.8520    2.3699 C   0  0  0  0  0  4           0  0  0
   -1.6514    0.8320    1.7099 C   0  0  0  0  0  4           0  0  0
   -3.4520   -0.1619    7.8774 C   0  0  0  0  0  4           0  0  0
   -3.9100   -0.9940    6.8618 C   0  0  0  0  0  4           0  0  0
    2.0784    2.4282    0.1243 C   0  0  0  0  0  4           0  0  0
    2.3036   -0.8545   -0.4934 C   0  0  0  0  0  4           0  0  0
    3.6405    0.4811    0.4535 C   0  0  0  0  0  4           0  0  0
    0.0000    0.0000    0.0000 C   0  0  0  0  0  4           0  0  0
    2.2664    1.0423    0.7177 C   0  0  1  0  0  4           0  0  0
    1.8824   -2.0359   -1.2978 C   0  0  0  0  0  4           0  0  0
    1.6370   -3.2411   -0.3970 C   0  0  0  0  0  4           0  0  0
    1.2024   -4.4810   -1.1725 C   0  0  0  0  0  4           0  0  0
    0.9573   -5.6841   -0.2740 C   0  0  0  0  0  4           0  0  0
  1 21  1  0     0  0
  2  3  2  0     0  0
  2  4  1  0     0  0
  3  5  1  0     0  0
  4  8  1  0     0  0
  5  8  2  0     0  0
  6 22  2  0     0  0
  6 24  1  0     0  0
  6 25  1  0     0  0
  7 22  1  0     0  0
  7 23  2  0     0  0
  8  9  1  0     0  0
  9 10  1  0     0  0
  9 13  2  0     0  0
 10 11  1  0     0  0
 10 14  2  0     0  0
 11 15  2  0     0  0
 11 16  1  0     0  0
 12 17  2  0     0  0
 12 18  1  0     0  0
 12 24  1  0     0  0
 13 19  1  0     0  0
 14 20  1  0     0  0
 15 17  1  0     0  0
 16 18  2  0     0  0
 19 20  2  0     0  0
 21 25  1  0     0  0
 22 26  1  0     0  0
 23 25  1  0     0  0
 26 27  1  0     0  0
 27 28  1  0     0  0
 28 29  1  0     0  0
M  CHG  1   6   1
M  END
> <standard_type>
pIC50

> <# Confs.>
25

> <canonical_smiles>
CCCCC(N=CC1CO)=[N]1CC2=CC=C(C3=CC=CC=C3C4=NN=NN4)C=C2

> <standard_relation>
=

> <Publication_ID>
nan

> <predicted_activity_value>
7.823908740944319

> <actual_activity_value>
7.5376020021010435

> <Compound>
4

> <standard_units>
nM

> hash
11930142815789539851

$$$$
4_
XXILIB    08252103513D 0   0.00000     0.00000

 29 32  0     1  0            999 V2000
    1.0342   -3.1275    0.7626 O   0  0  0  0  0  2           0  0  0
    0.5683   -3.4931    6.4606 N   0  0  0  0  0  3           0  0  0
    1.0990   -2.7011    5.5389 N   0  0  0  0  0  3           0  0  0
   -0.5442   -2.8635    6.8608 N   0  0  0  0  0  3           0  0  0
    0.3308   -1.5752    5.3517 N   0  0  0  0  0  3           0  0  0
    1.4767   -0.0000    0.0000 N   0  3  0  0  0  4           0  0  0
    3.6261    0.6348   -0.2220 N   0  0  0  0  0  3           0  0  0
   -0.6892   -1.6852    6.1799 C   0  0  0  0  0  4           0  0  0
   -1.7852   -0.7669    6.3709 C   0  0  0  0  0  4           0  0  0
   -2.2609    0.0561    5.3246 C   0  0  0  0  0  4           0  0  0
   -1.6848    0.0340    3.9858 C   0  0  0  0  0  4           0  0  0
   -0.5728    0.0000    1.3850 C   0  0  0  0  0  4           0  0  0
   -2.3775   -0.6948    7.6424 C   0  0  0  0  0  4           0  0  0
   -3.3317    0.9300    5.5933 C   0  0  0  0  0  4           0  0  0
   -2.1811   -0.8368    3.0043 C   0  0  0  0  0  4           0  0  0
   -0.6246    0.8877    3.6469 C   0  0  0  0  0  4           0  0  0
   -1.6329   -0.8520    1.7186 C   0  0  0  0  0  4           0  0  0
   -0.0763    0.8724    2.3614 C   0  0  0  0  0  4           0  0  0
   -3.4362    0.1790    7.8840 C   0  0  0  0  0  4           0  0  0
   -3.9133    0.9904    6.8605 C   0  0  0  0  0  4           0  0  0
    2.1164   -2.4162    0.1700 C   0  0  0  0  0  4           0  0  0
    2.2979    0.8580   -0.4953 C   0  0  0  0  0  4           0  0  0
    3.6384   -0.4363    0.5016 C   0  0  0  0  0  4           0  0  0
    0.0000    0.0000    0.0000 C   0  0  0  0  0  4           0  0  0
    2.2695   -1.0188    0.7464 C   0  0  1  0  0  4           0  0  0
    1.8632    2.0530   -1.2713 C   0  0  0  0  0  4           0  0  0
    1.7716    1.7262   -2.7575 C   0  0  0  0  0  4           0  0  0
    3.1028    1.2691   -3.3462 C   0  0  0  0  0  4           0  0  0
    3.0121    0.9427   -4.8294 C   0  0  0  0  0  4           0  0  0
  1 21  1  0     0  0
  2  3  2  0     0  0
  2  4  1  0     0  0
  3  5  1  0     0  0
  4  8  1  0     0  0
  5  8  2  0     0  0
  6 22  2  0     0  0
  6 24  1  0     0  0
  6 25  1  0     0  0
  7 22  1  0     0  0
  7 23  2  0     0  0
  8  9  1  0     0  0
  9 10  1  0     0  0
  9 13  2  0     0  0
 10 11  1  0     0  0
 10 14  2  0     0  0
 11 15  2  0     0  0
 11 16  1  0     0  0
 12 17  2  0     0  0
 12 18  1  0     0  0
 12 24  1  0     0  0
 13 19  1  0     0  0
 14 20  1  0     0  0
 15 17  1  0     0  0
 16 18  2  0     0  0
 19 20  2  0     0  0
 21 25  1  0     0  0
 22 26  1  0     0  0
 23 25  1  0     0  0
 26 27  1  0     0  0
 27 28  1  0     0  0
 28 29  1  0     0  0
M  CHG  1   6   1
M  END
> <standard_type>
pIC50

> <# Confs.>
25

> <canonical_smiles>
CCCCC(N=CC1CO)=[N]1CC2=CC=C(C3=CC=CC=C3C4=NN=NN4)C=C2

> <standard_relation>
=

> <Publication_ID>
nan

> <predicted_activity_value>
7.823908740944319

> <actual_activity_value>
7.5376020021010435

> <Compound>
4

> <standard_units>
nM

> hash
11930142815789539851

$$$$
4_
XXILIB    08252103513D 0   0.00000     0.00000

 29 32  0     1  0            999 V2000
    2.4802    2.4884   -1.2407 O   0  0  0  0  0  2           0  0  0
    2.2534   -0.3551    6.9478 N   0  0  0  0  0  3           0  0  0
    2.1811    0.3040    5.7995 N   0  0  0  0  0  3           0  0  0
    0.9812   -0.5299    7.3287 N   0  0  0  0  0  3           0  0  0
    0.8730    0.5474    5.4497 N   0  0  0  0  0  3           0  0  0
    1.4768   -0.0000   -0.0000 N   0  3  0  0  0  4           0  0  0
    3.6330   -0.6003   -0.2547 N   0  0  0  0  0  3           0  0  0
    0.1337    0.0254    6.4085 C   0  0  0  0  0  4           0  0  0
   -1.3047    0.0092    6.5162 C   0  0  0  0  0  4           0  0  0
   -2.1389   -0.0014    5.3750 C   0  0  0  0  0  4           0  0  0
   -1.6098   -0.0004    4.0168 C   0  0  0  0  0  4           0  0  0
   -0.5728   -0.0000    1.3850 C   0  0  0  0  0  4           0  0  0
   -1.8748    0.0149    7.7999 C   0  0  0  0  0  4           0  0  0
   -3.5340   -0.0114    5.5648 C   0  0  0  0  0  4           0  0  0
   -1.3598    1.2049    3.3440 C   0  0  0  0  0  4           0  0  0
   -1.3330   -1.2052    3.3539 C   0  0  0  0  0  4           0  0  0
   -0.8455    1.2049    2.0443 C   0  0  0  0  0  4           0  0  0
   -0.8188   -1.2052    2.0543 C   0  0  0  0  0  4           0  0  0
   -3.2591    0.0053    7.9619 C   0  0  0  0  0  4           0  0  0
   -4.0882   -0.0083    6.8457 C   0  0  0  0  0  4           0  0  0
    2.0784    2.4282    0.1243 C   0  0  0  0  0  4           0  0  0
    2.3036   -0.8545   -0.4934 C   0  0  0  0  0  4           0  0  0
    3.6405    0.4811    0.4535 C   0  0  0  0  0  4           0  0  0
    0.0000    0.0000    0.0000 C   0  0  0  0  0  4           0  0  0
    2.2664    1.0423    0.7177 C   0  0  1  0  0  4           0  0  0
    1.8824   -2.0359   -1.2978 C   0  0  0  0  0  4           0  0  0
    1.6370   -3.2411   -0.3970 C   0  0  0  0  0  4           0  0  0
    2.8767   -3.6536    0.3907 C   0  0  0  0  0  4           0  0  0
    2.6323   -4.8564    1.2898 C   0  0  0  0  0  4           0  0  0
  1 21  1  0     0  0
  2  3  2  0     0  0
  2  4  1  0     0  0
  3  5  1  0     0  0
  4  8  1  0     0  0
  5  8  2  0     0  0
  6 22  2  0     0  0
  6 24  1  0     0  0
  6 25  1  0     0  0
  7 22  1  0     0  0
  7 23  2  0     0  0
  8  9  1  0     0  0
  9 10  1  0     0  0
  9 13  2  0     0  0
 10 11  1  0     0  0
 10 14  2  0     0  0
 11 15  2  0     0  0
 11 16  1  0     0  0
 12 17  2  0     0  0
 12 18  1  0     0  0
 12 24  1  0     0  0
 13 19  1  0     0  0
 14 20  1  0     0  0
 15 17  1  0     0  0
 16 18  2  0     0  0
 19 20  2  0     0  0
 21 25  1  0     0  0
 22 26  1  0     0  0
 23 25  1  0     0  0
 26 27  1  0     0  0
 27 28  1  0     0  0
 28 29  1  0     0  0
M  CHG  1   6   1
M  END
> <standard_type>
pIC50

> <# Confs.>
25

> <canonical_smiles>
CCCCC(N=CC1CO)=[N]1CC2=CC=C(C3=CC=CC=C3C4=NN=NN4)C=C2

> <standard_relation>
=

> <Publication_ID>
nan

> <predicted_activity_value>
7.823908740944319

> <actual_activity_value>
7.5376020021010435

> <Compound>
4

> <standard_units>
nM

> hash
11930142815789539851

$$$$
4_
XXILIB    08252103513D 0   0.00000     0.00000

 29 32  0     1  0            999 V2000
    1.8066    2.3833   -1.2730 O   0  0  0  0  0  2           0  0  0
    1.4526    2.7172    6.6433 N   0  0  0  0  0  3           0  0  0
    1.7650    1.9056    5.6422 N   0  0  0  0  0  3           0  0  0
    0.2369    2.3227    7.0439 N   0  0  0  0  0  3           0  0  0
    0.7569    0.9996    5.4063 N   0  0  0  0  0  3           0  0  0
    1.4768   -0.0000   -0.0000 N   0  3  0  0  0  4           0  0  0
    3.6330   -0.6003   -0.2547 N   0  0  0  0  0  3           0  0  0
   -0.1903    1.2682    6.2832 C   0  0  0  0  0  4           0  0  0
   -1.4588    0.6035    6.4566 C   0  0  0  0  0  4           0  0  0
   -2.1389   -0.0014    5.3750 C   0  0  0  0  0  4           0  0  0
   -1.6098   -0.0004    4.0168 C   0  0  0  0  0  4           0  0  0
   -0.5728   -0.0000    1.3850 C   0  0  0  0  0  4           0  0  0
   -2.0238    0.5756    7.7422 C   0  0  0  0  0  4           0  0  0
   -3.3757   -0.6257    5.6260 C   0  0  0  0  0  4           0  0  0
   -1.3598    1.2049    3.3440 C   0  0  0  0  0  4           0  0  0
   -1.3330   -1.2052    3.3539 C   0  0  0  0  0  4           0  0  0
   -0.8455    1.2049    2.0443 C   0  0  0  0  0  4           0  0  0
   -0.8188   -1.2052    2.0543 C   0  0  0  0  0  4           0  0  0
   -3.2501   -0.0482    7.9654 C   0  0  0  0  0  4           0  0  0
   -3.9254   -0.6488    6.9086 C   0  0  0  0  0  4           0  0  0
    2.0784    2.4282    0.1243 C   0  0  0  0  0  4           0  0  0
    2.3036   -0.8545   -0.4934 C   0  0  0  0  0  4           0  0  0
    3.6405    0.4811    0.4535 C   0  0  0  0  0  4           0  0  0
    0.0000    0.0000    0.0000 C   0  0  0  0  0  4           0  0  0
    2.2664    1.0423    0.7177 C   0  0  1  0  0  4           0  0  0
    1.8824   -2.0359   -1.2978 C   0  0  0  0  0  4           0  0  0
    1.8234   -1.6849   -2.7802 C   0  0  0  0  0  4           0  0  0
    1.3963   -2.8625   -3.6508 C   0  0  0  0  0  4           0  0  0
    1.3372   -2.5127   -5.1303 C   0  0  0  0  0  4           0  0  0
  1 21  1  0     0  0
  2  3  2  0     0  0
  2  4  1  0     0  0
  3  5  1  0     0  0
  4  8  1  0     0  0
  5  8  2  0     0  0
  6 22  2  0     0  0
  6 24  1  0     0  0
  6 25  1  0     0  0
  7 22  1  0     0  0
  7 23  2  0     0  0
  8  9  1  0     0  0
  9 10  1  0     0  0
  9 13  2  0     0  0
 10 11  1  0     0  0
 10 14  2  0     0  0
 11 15  2  0     0  0
 11 16  1  0     0  0
 12 17  2  0     0  0
 12 18  1  0     0  0
 12 24  1  0     0  0
 13 19  1  0     0  0
 14 20  1  0     0  0
 15 17  1  0     0  0
 16 18  2  0     0  0
 19 20  2  0     0  0
 21 25  1  0     0  0
 22 26  1  0     0  0
 23 25  1  0     0  0
 26 27  1  0     0  0
 27 28  1  0     0  0
 28 29  1  0     0  0
M  CHG  1   6   1
M  END
> <standard_type>
pIC50

> <# Confs.>
25

> <canonical_smiles>
CCCCC(N=CC1CO)=[N]1CC2=CC=C(C3=CC=CC=C3C4=NN=NN4)C=C2

> <standard_relation>
=

> <Publication_ID>
nan

> <predicted_activity_value>
7.823908740944319

> <actual_activity_value>
7.5376020021010435

> <Compound>
4

> <standard_units>
nM

> hash
11930142815789539851

$$$$
4_
XXILIB    08252103513D 0   0.00000     0.00000

 29 32  0     1  0            999 V2000
    2.4802    2.4884   -1.2407 O   0  0  0  0  0  2           0  0  0
    2.2534   -0.3551    6.9478 N   0  0  0  0  0  3           0  0  0
    2.1811    0.3040    5.7995 N   0  0  0  0  0  3           0  0  0
    0.9812   -0.5299    7.3287 N   0  0  0  0  0  3           0  0  0
    0.8730    0.5474    5.4497 N   0  0  0  0  0  3           0  0  0
    1.4768   -0.0000   -0.0000 N   0  3  0  0  0  4           0  0  0
    3.6330   -0.6003   -0.2547 N   0  0  0  0  0  3           0  0  0
    0.1337    0.0254    6.4085 C   0  0  0  0  0  4           0  0  0
   -1.3047    0.0092    6.5162 C   0  0  0  0  0  4           0  0  0
   -2.1389   -0.0014    5.3750 C   0  0  0  0  0  4           0  0  0
   -1.6098   -0.0004    4.0168 C   0  0  0  0  0  4           0  0  0
   -0.5728   -0.0000    1.3850 C   0  0  0  0  0  4           0  0  0
   -1.8748    0.0149    7.7999 C   0  0  0  0  0  4           0  0  0
   -3.5340   -0.0114    5.5648 C   0  0  0  0  0  4           0  0  0
   -1.3598    1.2049    3.3440 C   0  0  0  0  0  4           0  0  0
   -1.3330   -1.2052    3.3539 C   0  0  0  0  0  4           0  0  0
   -0.8455    1.2049    2.0443 C   0  0  0  0  0  4           0  0  0
   -0.8188   -1.2052    2.0543 C   0  0  0  0  0  4           0  0  0
   -3.2591    0.0053    7.9619 C   0  0  0  0  0  4           0  0  0
   -4.0882   -0.0083    6.8457 C   0  0  0  0  0  4           0  0  0
    2.0784    2.4282    0.1243 C   0  0  0  0  0  4           0  0  0
    2.3036   -0.8545   -0.4934 C   0  0  0  0  0  4           0  0  0
    3.6405    0.4811    0.4535 C   0  0  0  0  0  4           0  0  0
    0.0000    0.0000    0.0000 C   0  0  0  0  0  4           0  0  0
    2.2664    1.0423    0.7177 C   0  0  1  0  0  4           0  0  0
    1.8824   -2.0359   -1.2978 C   0  0  0  0  0  4           0  0  0
    1.8234   -1.6849   -2.7802 C   0  0  0  0  0  4           0  0  0
    3.1680   -1.2220   -3.3329 C   0  0  0  0  0  4           0  0  0
    3.1096   -0.8715   -4.8122 C   0  0  0  0  0  4           0  0  0
  1 21  1  0     0  0
  2  3  2  0     0  0
  2  4  1  0     0  0
  3  5  1  0     0  0
  4  8  1  0     0  0
  5  8  2  0     0  0
  6 22  2  0     0  0
  6 24  1  0     0  0
  6 25  1  0     0  0
  7 22  1  0     0  0
  7 23  2  0     0  0
  8  9  1  0     0  0
  9 10  1  0     0  0
  9 13  2  0     0  0
 10 11  1  0     0  0
 10 14  2  0     0  0
 11 15  2  0     0  0
 11 16  1  0     0  0
 12 17  2  0     0  0
 12 18  1  0     0  0
 12 24  1  0     0  0
 13 19  1  0     0  0
 14 20  1  0     0  0
 15 17  1  0     0  0
 16 18  2  0     0  0
 19 20  2  0     0  0
 21 25  1  0     0  0
 22 26  1  0     0  0
 23 25  1  0     0  0
 26 27  1  0     0  0
 27 28  1  0     0  0
 28 29  1  0     0  0
M  CHG  1   6   1
M  END
> <standard_type>
pIC50

> <# Confs.>
25

> <canonical_smiles>
CCCCC(N=CC1CO)=[N]1CC2=CC=C(C3=CC=CC=C3C4=NN=NN4)C=C2

> <standard_relation>
=

> <Publication_ID>
nan

> <predicted_activity_value>
7.823908740944319

> <actual_activity_value>
7.5376020021010435

> <Compound>
4

> <standard_units>
nM

> hash
11930142815789539851

$$$$
4_
XXILIB    08252103513D 0   0.00000     0.00000

 29 32  0     1  0            999 V2000
    1.0342   -3.0898   -0.9033 O   0  0  0  0  0  2           0  0  0
    2.2445    0.4495    6.9500 N   0  0  0  0  0  3           0  0  0
    2.1874   -0.2171    5.8052 N   0  0  0  0  0  3           0  0  0
    0.9684    0.6015    7.3275 N   0  0  0  0  0  3           0  0  0
    0.8850   -0.4893    5.4551 N   0  0  0  0  0  3           0  0  0
    1.4767    0.0000   -0.0000 N   0  3  0  0  0  4           0  0  0
    3.6261    0.6608    0.1252 N   0  0  0  0  0  3           0  0  0
    0.1337    0.0254    6.4085 C   0  0  0  0  0  4           0  0  0
   -1.3047    0.0092    6.5162 C   0  0  0  0  0  4           0  0  0
   -2.1389   -0.0014    5.3750 C   0  0  0  0  0  4           0  0  0
   -1.6098   -0.0004    4.0168 C   0  0  0  0  0  4           0  0  0
   -0.5728   -0.0000    1.3850 C   0  0  0  0  0  4           0  0  0
   -1.8748    0.0149    7.7999 C   0  0  0  0  0  4           0  0  0
   -3.5340   -0.0114    5.5648 C   0  0  0  0  0  4           0  0  0
   -1.3598    1.2049    3.3440 C   0  0  0  0  0  4           0  0  0
   -1.3330   -1.2052    3.3539 C   0  0  0  0  0  4           0  0  0
   -0.8455    1.2049    2.0443 C   0  0  0  0  0  4           0  0  0
   -0.8188   -1.2052    2.0543 C   0  0  0  0  0  4           0  0  0
   -3.2591    0.0053    7.9619 C   0  0  0  0  0  4           0  0  0
   -4.0882   -0.0083    6.8457 C   0  0  0  0  0  4           0  0  0
    2.1164   -2.1775   -1.0609 C   0  0  0  0  0  4           0  0  0
    2.2979    0.9907    0.0000 C   0  0  0  0  0  4           0  0  0
    3.6384   -0.6287    0.2163 C   0  0  0  0  0  4           0  0  0
    0.0000    0.0000    0.0000 C   0  0  0  0  0  4           0  0  0
    2.2695   -1.2555    0.1370 C   0  0  1  0  0  4           0  0  0
    1.8632    2.4136   -0.0744 C   0  0  0  0  0  4           0  0  0
    2.4441    3.0903   -1.3109 C   0  0  0  0  0  4           0  0  0
    2.0107    2.4203   -2.6111 C   0  0  0  0  0  4           0  0  0
    2.5902    3.0952   -3.8454 C   0  0  0  0  0  4           0  0  0
  1 21  1  0     0  0
  2  3  2  0     0  0
  2  4  1  0     0  0
  3  5  1  0     0  0
  4  8  1  0     0  0
  5  8  2  0     0  0
  6 22  2  0     0  0
  6 24  1  0     0  0
  6 25  1  0     0  0
  7 22  1  0     0  0
  7 23  2  0     0  0
  8  9  1  0     0  0
  9 10  1  0     0  0
  9 13  2  0     0  0
 10 11  1  0     0  0
 10 14  2  0     0  0
 11 15  2  0     0  0
 11 16  1  0     0  0
 12 17  2  0     0  0
 12 18  1  0     0  0
 12 24  1  0     0  0
 13 19  1  0     0  0
 14 20  1  0     0  0
 15 17  1  0     0  0
 16 18  2  0     0  0
 19 20  2  0     0  0
 21 25  1  0     0  0
 22 26  1  0     0  0
 23 25  1  0     0  0
 26 27  1  0     0  0
 27 28  1  0     0  0
 28 29  1  0     0  0
M  CHG  1   6   1
M  END
> <standard_type>
pIC50

> <# Confs.>
25

> <canonical_smiles>
CCCCC(N=CC1CO)=[N]1CC2=CC=C(C3=CC=CC=C3C4=NN=NN4)C=C2

> <standard_relation>
=

> <Publication_ID>
nan

> <predicted_activity_value>
7.823908740944319

> <actual_activity_value>
7.5376020021010435

> <Compound>
4

> <standard_units>
nM

> hash
11930142815789539851

$$$$
4_
XXILIB    08252103513D 0   0.00000     0.00000

 29 32  0     1  0            999 V2000
    1.0342   -3.0898   -0.9033 O   0  0  0  0  0  2           0  0  0
    2.2445    0.4495    6.9500 N   0  0  0  0  0  3           0  0  0
    2.1874   -0.2171    5.8052 N   0  0  0  0  0  3           0  0  0
    0.9684    0.6015    7.3275 N   0  0  0  0  0  3           0  0  0
    0.8850   -0.4893    5.4551 N   0  0  0  0  0  3           0  0  0
    1.4767    0.0000   -0.0000 N   0  3  0  0  0  4           0  0  0
    3.6261    0.6608    0.1252 N   0  0  0  0  0  3           0  0  0
    0.1337    0.0254    6.4085 C   0  0  0  0  0  4           0  0  0
   -1.3047    0.0092    6.5162 C   0  0  0  0  0  4           0  0  0
   -2.1389   -0.0014    5.3750 C   0  0  0  0  0  4           0  0  0
   -1.6098   -0.0004    4.0168 C   0  0  0  0  0  4           0  0  0
   -0.5728   -0.0000    1.3850 C   0  0  0  0  0  4           0  0  0
   -1.8748    0.0149    7.7999 C   0  0  0  0  0  4           0  0  0
   -3.5340   -0.0114    5.5648 C   0  0  0  0  0  4           0  0  0
   -1.3598    1.2049    3.3440 C   0  0  0  0  0  4           0  0  0
   -1.3330   -1.2052    3.3539 C   0  0  0  0  0  4           0  0  0
   -0.8455    1.2049    2.0443 C   0  0  0  0  0  4           0  0  0
   -0.8188   -1.2052    2.0543 C   0  0  0  0  0  4           0  0  0
   -3.2591    0.0053    7.9619 C   0  0  0  0  0  4           0  0  0
   -4.0882   -0.0083    6.8457 C   0  0  0  0  0  4           0  0  0
    2.1164   -2.1775   -1.0609 C   0  0  0  0  0  4           0  0  0
    2.2979    0.9907    0.0000 C   0  0  0  0  0  4           0  0  0
    3.6384   -0.6287    0.2163 C   0  0  0  0  0  4           0  0  0
    0.0000    0.0000    0.0000 C   0  0  0  0  0  4           0  0  0
    2.2695   -1.2555    0.1370 C   0  0  1  0  0  4           0  0  0
    1.8632    2.4136   -0.0744 C   0  0  0  0  0  4           0  0  0
    2.4441    3.0903   -1.3109 C   0  0  0  0  0  4           0  0  0
    2.0287    4.5530   -1.4354 C   0  0  0  0  0  4           0  0  0
    2.6082    5.2288   -2.6691 C   0  0  0  0  0  4           0  0  0
  1 21  1  0     0  0
  2  3  2  0     0  0
  2  4  1  0     0  0
  3  5  1  0     0  0
  4  8  1  0     0  0
  5  8  2  0     0  0
  6 22  2  0     0  0
  6 24  1  0     0  0
  6 25  1  0     0  0
  7 22  1  0     0  0
  7 23  2  0     0  0
  8  9  1  0     0  0
  9 10  1  0     0  0
  9 13  2  0     0  0
 10 11  1  0     0  0
 10 14  2  0     0  0
 11 15  2  0     0  0
 11 16  1  0     0  0
 12 17  2  0     0  0
 12 18  1  0     0  0
 12 24  1  0     0  0
 13 19  1  0     0  0
 14 20  1  0     0  0
 15 17  1  0     0  0
 16 18  2  0     0  0
 19 20  2  0     0  0
 21 25  1  0     0  0
 22 26  1  0     0  0
 23 25  1  0     0  0
 26 27  1  0     0  0
 27 28  1  0     0  0
 28 29  1  0     0  0
M  CHG  1   6   1
M  END
> <standard_type>
pIC50

> <# Confs.>
25

> <canonical_smiles>
CCCCC(N=CC1CO)=[N]1CC2=CC=C(C3=CC=CC=C3C4=NN=NN4)C=C2

> <standard_relation>
=

> <Publication_ID>
nan

> <predicted_activity_value>
7.823908740944319

> <actual_activity_value>
7.5376020021010435

> <Compound>
4

> <standard_units>
nM

> hash
11930142815789539851

$$$$
4_
XXILIB    08252103513D 0   0.00000     0.00000

 29 32  0     1  0            999 V2000
    1.0342   -3.0898   -0.9033 O   0  0  0  0  0  2           0  0  0
    2.2445    0.4495    6.9500 N   0  0  0  0  0  3           0  0  0
    2.1874   -0.2171    5.8052 N   0  0  0  0  0  3           0  0  0
    0.9684    0.6015    7.3275 N   0  0  0  0  0  3           0  0  0
    0.8850   -0.4893    5.4551 N   0  0  0  0  0  3           0  0  0
    1.4767    0.0000   -0.0000 N   0  3  0  0  0  4           0  0  0
    3.6261    0.6608    0.1252 N   0  0  0  0  0  3           0  0  0
    0.1337    0.0254    6.4085 C   0  0  0  0  0  4           0  0  0
   -1.3047    0.0092    6.5162 C   0  0  0  0  0  4           0  0  0
   -2.1389   -0.0014    5.3750 C   0  0  0  0  0  4           0  0  0
   -1.6098   -0.0004    4.0168 C   0  0  0  0  0  4           0  0  0
   -0.5728   -0.0000    1.3850 C   0  0  0  0  0  4           0  0  0
   -1.8748    0.0149    7.7999 C   0  0  0  0  0  4           0  0  0
   -3.5340   -0.0114    5.5648 C   0  0  0  0  0  4           0  0  0
   -1.3598    1.2049    3.3440 C   0  0  0  0  0  4           0  0  0
   -1.3330   -1.2052    3.3539 C   0  0  0  0  0  4           0  0  0
   -0.8455    1.2049    2.0443 C   0  0  0  0  0  4           0  0  0
   -0.8188   -1.2052    2.0543 C   0  0  0  0  0  4           0  0  0
   -3.2591    0.0053    7.9619 C   0  0  0  0  0  4           0  0  0
   -4.0882   -0.0083    6.8457 C   0  0  0  0  0  4           0  0  0
    2.1164   -2.1775   -1.0609 C   0  0  0  0  0  4           0  0  0
    2.2979    0.9907   -0.0000 C   0  0  0  0  0  4           0  0  0
    3.6384   -0.6287    0.2163 C   0  0  0  0  0  4           0  0  0
    0.0000    0.0000    0.0000 C   0  0  0  0  0  4           0  0  0
    2.2695   -1.2555    0.1370 C   0  0  1  0  0  4           0  0  0
    1.8632    2.4136   -0.0744 C   0  0  0  0  0  4           0  0  0
    2.3304    3.1846    1.1550 C   0  0  0  0  0  4           0  0  0
    1.9104    4.6510    1.1290 C   0  0  0  0  0  4           0  0  0
    2.3765    5.4209    2.3557 C   0  0  0  0  0  4           0  0  0
  1 21  1  0     0  0
  2  3  2  0     0  0
  2  4  1  0     0  0
  3  5  1  0     0  0
  4  8  1  0     0  0
  5  8  2  0     0  0
  6 22  2  0     0  0
  6 24  1  0     0  0
  6 25  1  0     0  0
  7 22  1  0     0  0
  7 23  2  0     0  0
  8  9  1  0     0  0
  9 10  1  0     0  0
  9 13  2  0     0  0
 10 11  1  0     0  0
 10 14  2  0     0  0
 11 15  2  0     0  0
 11 16  1  0     0  0
 12 17  2  0     0  0
 12 18  1  0     0  0
 12 24  1  0     0  0
 13 19  1  0     0  0
 14 20  1  0     0  0
 15 17  1  0     0  0
 16 18  2  0     0  0
 19 20  2  0     0  0
 21 25  1  0     0  0
 22 26  1  0     0  0
 23 25  1  0     0  0
 26 27  1  0     0  0
 27 28  1  0     0  0
 28 29  1  0     0  0
M  CHG  1   6   1
M  END
> <standard_type>
pIC50

> <# Confs.>
25

> <canonical_smiles>
CCCCC(N=CC1CO)=[N]1CC2=CC=C(C3=CC=CC=C3C4=NN=NN4)C=C2

> <standard_relation>
=

> <Publication_ID>
nan

> <predicted_activity_value>
7.823908740944319

> <actual_activity_value>
7.5376020021010435

> <Compound>
4

> <standard_units>
nM

> hash
11930142815789539851

$$$$
4_
XXILIB    08252103513D 0   0.00000     0.00000

 29 32  0     1  0            999 V2000
    2.4802    2.4884   -1.2407 O   0  0  0  0  0  2           0  0  0
    0.4968    3.5581    6.4353 N   0  0  0  0  0  3           0  0  0
    1.0444    2.7696    5.5206 N   0  0  0  0  0  3           0  0  0
   -0.6046    2.9107    6.8376 N   0  0  0  0  0  3           0  0  0
    0.2988    1.6274    5.3410 N   0  0  0  0  0  3           0  0  0
    1.4768   -0.0000   -0.0000 N   0  3  0  0  0  4           0  0  0
    3.6330   -0.6003   -0.2547 N   0  0  0  0  0  3           0  0  0
   -0.7262    1.7252    6.1646 C   0  0  0  0  0  4           0  0  0
   -1.8023    0.7854    6.3638 C   0  0  0  0  0  4           0  0  0
   -2.2627   -0.0541    5.3238 C   0  0  0  0  0  4           0  0  0
   -1.6853   -0.0335    3.9856 C   0  0  0  0  0  4           0  0  0
   -0.5728   -0.0000    1.3850 C   0  0  0  0  0  4           0  0  0
   -2.4046    0.7241    7.6312 C   0  0  0  0  0  4           0  0  0
   -3.3216   -0.9408    5.5975 C   0  0  0  0  0  4           0  0  0
   -0.6065   -0.8672    3.6556 C   0  0  0  0  0  4           0  0  0
   -2.1996    0.8168    2.9954 C   0  0  0  0  0  4           0  0  0
   -0.0582   -0.8520    2.3699 C   0  0  0  0  0  4           0  0  0
   -1.6514    0.8320    1.7099 C   0  0  0  0  0  4           0  0  0
   -3.4520   -0.1619    7.8774 C   0  0  0  0  0  4           0  0  0
   -3.9100   -0.9940    6.8618 C   0  0  0  0  0  4           0  0  0
    2.0784    2.4282    0.1243 C   0  0  0  0  0  4           0  0  0
    2.3036   -0.8545   -0.4934 C   0  0  0  0  0  4           0  0  0
    3.6405    0.4811    0.4535 C   0  0  0  0  0  4           0  0  0
    0.0000    0.0000    0.0000 C   0  0  0  0  0  4           0  0  0
    2.2664    1.0423    0.7177 C   0  0  1  0  0  4           0  0  0
    1.8824   -2.0359   -1.2978 C   0  0  0  0  0  4           0  0  0
    1.6370   -3.2411   -0.3970 C   0  0  0  0  0  4           0  0  0
    2.8767   -3.6536    0.3907 C   0  0  0  0  0  4           0  0  0
    2.6323   -4.8564    1.2898 C   0  0  0  0  0  4           0  0  0
  1 21  1  0     0  0
  2  3  2  0     0  0
  2  4  1  0     0  0
  3  5  1  0     0  0
  4  8  1  0     0  0
  5  8  2  0     0  0
  6 22  2  0     0  0
  6 24  1  0     0  0
  6 25  1  0     0  0
  7 22  1  0     0  0
  7 23  2  0     0  0
  8  9  1  0     0  0
  9 10  1  0     0  0
  9 13  2  0     0  0
 10 11  1  0     0  0
 10 14  2  0     0  0
 11 15  2  0     0  0
 11 16  1  0     0  0
 12 17  2  0     0  0
 12 18  1  0     0  0
 12 24  1  0     0  0
 13 19  1  0     0  0
 14 20  1  0     0  0
 15 17  1  0     0  0
 16 18  2  0     0  0
 19 20  2  0     0  0
 21 25  1  0     0  0
 22 26  1  0     0  0
 23 25  1  0     0  0
 26 27  1  0     0  0
 27 28  1  0     0  0
 28 29  1  0     0  0
M  CHG  1   6   1
M  END
> <standard_type>
pIC50

> <# Confs.>
25

> <canonical_smiles>
CCCCC(N=CC1CO)=[N]1CC2=CC=C(C3=CC=CC=C3C4=NN=NN4)C=C2

> <standard_relation>
=

> <Publication_ID>
nan

> <predicted_activity_value>
7.823908740944319

> <actual_activity_value>
7.5376020021010435

> <Compound>
4

> <standard_units>
nM

> hash
11930142815789539851

$$$$
4_
XXILIB    08252103513D 0   0.00000     0.00000

 29 32  0     1  0            999 V2000
    2.4802    2.4884   -1.2407 O   0  0  0  0  0  2           0  0  0
    2.2534   -0.3551    6.9478 N   0  0  0  0  0  3           0  0  0
    2.1811    0.3040    5.7995 N   0  0  0  0  0  3           0  0  0
    0.9812   -0.5299    7.3287 N   0  0  0  0  0  3           0  0  0
    0.8730    0.5474    5.4497 N   0  0  0  0  0  3           0  0  0
    1.4768    0.0000    0.0000 N   0  3  0  0  0  4           0  0  0
    3.6330   -0.6003   -0.2547 N   0  0  0  0  0  3           0  0  0
    0.1337    0.0254    6.4085 C   0  0  0  0  0  4           0  0  0
   -1.3047    0.0092    6.5162 C   0  0  0  0  0  4           0  0  0
   -2.1389   -0.0014    5.3750 C   0  0  0  0  0  4           0  0  0
   -1.6098   -0.0004    4.0168 C   0  0  0  0  0  4           0  0  0
   -0.5728   -0.0000    1.3850 C   0  0  0  0  0  4           0  0  0
   -1.8748    0.0149    7.7999 C   0  0  0  0  0  4           0  0  0
   -3.5340   -0.0114    5.5648 C   0  0  0  0  0  4           0  0  0
   -1.3598    1.2049    3.3440 C   0  0  0  0  0  4           0  0  0
   -1.3330   -1.2052    3.3539 C   0  0  0  0  0  4           0  0  0
   -0.8455    1.2049    2.0443 C   0  0  0  0  0  4           0  0  0
   -0.8188   -1.2052    2.0543 C   0  0  0  0  0  4           0  0  0
   -3.2591    0.0053    7.9619 C   0  0  0  0  0  4           0  0  0
   -4.0882   -0.0083    6.8457 C   0  0  0  0  0  4           0  0  0
    2.0784    2.4282    0.1243 C   0  0  0  0  0  4           0  0  0
    2.3036   -0.8545   -0.4934 C   0  0  0  0  0  4           0  0  0
    3.6405    0.4811    0.4535 C   0  0  0  0  0  4           0  0  0
    0.0000    0.0000    0.0000 C   0  0  0  0  0  4           0  0  0
    2.2664    1.0423    0.7177 C   0  0  1  0  0  4           0  0  0
    1.8824   -2.0359   -1.2978 C   0  0  0  0  0  4           0  0  0
    2.8656   -3.1873   -1.1193 C   0  0  0  0  0  4           0  0  0
    2.4801   -4.4250   -1.9236 C   0  0  0  0  0  4           0  0  0
    3.4610   -5.5744   -1.7458 C   0  0  0  0  0  4           0  0  0
  1 21  1  0     0  0
  2  3  2  0     0  0
  2  4  1  0     0  0
  3  5  1  0     0  0
  4  8  1  0     0  0
  5  8  2  0     0  0
  6 22  2  0     0  0
  6 24  1  0     0  0
  6 25  1  0     0  0
  7 22  1  0     0  0
  7 23  2  0     0  0
  8  9  1  0     0  0
  9 10  1  0     0  0
  9 13  2  0     0  0
 10 11  1  0     0  0
 10 14  2  0     0  0
 11 15  2  0     0  0
 11 16  1  0     0  0
 12 17  2  0     0  0
 12 18  1  0     0  0
 12 24  1  0     0  0
 13 19  1  0     0  0
 14 20  1  0     0  0
 15 17  1  0     0  0
 16 18  2  0     0  0
 19 20  2  0     0  0
 21 25  1  0     0  0
 22 26  1  0     0  0
 23 25  1  0     0  0
 26 27  1  0     0  0
 27 28  1  0     0  0
 28 29  1  0     0  0
M  CHG  1   6   1
M  END
> <standard_type>
pIC50

> <# Confs.>
25

> <canonical_smiles>
CCCCC(N=CC1CO)=[N]1CC2=CC=C(C3=CC=CC=C3C4=NN=NN4)C=C2

> <standard_relation>
=

> <Publication_ID>
nan

> <predicted_activity_value>
7.823908740944319

> <actual_activity_value>
7.5376020021010435

> <Compound>
4

> <standard_units>
nM

> hash
11930142815789539851

$$$$
4_
XXILIB    08252103513D 0   0.00000     0.00000

 29 32  0     1  0            999 V2000
    2.4802    1.5347   -2.3187 O   0  0  0  0  0  2           0  0  0
    2.2534   -0.3551    6.9478 N   0  0  0  0  0  3           0  0  0
    2.1811    0.3040    5.7995 N   0  0  0  0  0  3           0  0  0
    0.9812   -0.5299    7.3287 N   0  0  0  0  0  3           0  0  0
    0.8730    0.5474    5.4497 N   0  0  0  0  0  3           0  0  0
    1.4768   -0.0000   -0.0000 N   0  3  0  0  0  4           0  0  0
    3.6330   -0.6472    0.0795 N   0  0  0  0  0  3           0  0  0
    0.1337    0.0254    6.4085 C   0  0  0  0  0  4           0  0  0
   -1.3047    0.0092    6.5162 C   0  0  0  0  0  4           0  0  0
   -2.1389   -0.0014    5.3750 C   0  0  0  0  0  4           0  0  0
   -1.6098   -0.0004    4.0168 C   0  0  0  0  0  4           0  0  0
   -0.5728   -0.0000    1.3850 C   0  0  0  0  0  4           0  0  0
   -1.8748    0.0149    7.7999 C   0  0  0  0  0  4           0  0  0
   -3.5340   -0.0114    5.5648 C   0  0  0  0  0  4           0  0  0
   -1.3598    1.2049    3.3440 C   0  0  0  0  0  4           0  0  0
   -1.3330   -1.2052    3.3539 C   0  0  0  0  0  4           0  0  0
   -0.8455    1.2049    2.0443 C   0  0  0  0  0  4           0  0  0
   -0.8188   -1.2052    2.0543 C   0  0  0  0  0  4           0  0  0
   -3.2591    0.0053    7.9619 C   0  0  0  0  0  4           0  0  0
   -4.0882   -0.0083    6.8457 C   0  0  0  0  0  4           0  0  0
    2.0784    2.1650   -1.1065 C   0  0  0  0  0  4           0  0  0
    2.3036   -0.9867   -0.0000 C   0  0  0  0  0  4           0  0  0
    3.6405    0.6434    0.1522 C   0  0  0  0  0  4           0  0  0
    0.0000    0.0000    0.0000 C   0  0  0  0  0  4           0  0  0
    2.2664    1.2615    0.1004 C   0  0  1  0  0  4           0  0  0
    1.8824   -2.4121   -0.1060 C   0  0  0  0  0  4           0  0  0
    2.3319   -3.1991    1.1199 C   0  0  0  0  0  4           0  0  0
    1.9251   -4.6683    1.0620 C   0  0  0  0  0  4           0  0  0
    2.3734   -5.4542    2.2852 C   0  0  0  0  0  4           0  0  0
  1 21  1  0     0  0
  2  3  2  0     0  0
  2  4  1  0     0  0
  3  5  1  0     0  0
  4  8  1  0     0  0
  5  8  2  0     0  0
  6 22  2  0     0  0
  6 24  1  0     0  0
  6 25  1  0     0  0
  7 22  1  0     0  0
  7 23  2  0     0  0
  8  9  1  0     0  0
  9 10  1  0     0  0
  9 13  2  0     0  0
 10 11  1  0     0  0
 10 14  2  0     0  0
 11 15  2  0     0  0
 11 16  1  0     0  0
 12 17  2  0     0  0
 12 18  1  0     0  0
 12 24  1  0     0  0
 13 19  1  0     0  0
 14 20  1  0     0  0
 15 17  1  0     0  0
 16 18  2  0     0  0
 19 20  2  0     0  0
 21 25  1  0     0  0
 22 26  1  0     0  0
 23 25  1  0     0  0
 26 27  1  0     0  0
 27 28  1  0     0  0
 28 29  1  0     0  0
M  CHG  1   6   1
M  END
> <standard_type>
pIC50

> <# Confs.>
25

> <canonical_smiles>
CCCCC(N=CC1CO)=[N]1CC2=CC=C(C3=CC=CC=C3C4=NN=NN4)C=C2

> <standard_relation>
=

> <Publication_ID>
nan

> <predicted_activity_value>
7.823908740944319

> <actual_activity_value>
7.5376020021010435

> <Compound>
4

> <standard_units>
nM

> hash
11930142815789539851

$$$$
4_
XXILIB    08252103513D 0   0.00000     0.00000

 29 32  0     1  0            999 V2000
    1.8066    1.4275   -2.2941 O   0  0  0  0  0  2           0  0  0
    2.2534   -0.3551    6.9478 N   0  0  0  0  0  3           0  0  0
    2.1811    0.3040    5.7995 N   0  0  0  0  0  3           0  0  0
    0.9812   -0.5299    7.3287 N   0  0  0  0  0  3           0  0  0
    0.8730    0.5474    5.4497 N   0  0  0  0  0  3           0  0  0
    1.4768   -0.0000    0.0000 N   0  3  0  0  0  4           0  0  0
    3.6330   -0.6472    0.0795 N   0  0  0  0  0  3           0  0  0
    0.1337    0.0254    6.4085 C   0  0  0  0  0  4           0  0  0
   -1.3047    0.0092    6.5162 C   0  0  0  0  0  4           0  0  0
   -2.1389   -0.0014    5.3750 C   0  0  0  0  0  4           0  0  0
   -1.6098   -0.0004    4.0168 C   0  0  0  0  0  4           0  0  0
   -0.5728   -0.0000    1.3850 C   0  0  0  0  0  4           0  0  0
   -1.8748    0.0149    7.7999 C   0  0  0  0  0  4           0  0  0
   -3.5340   -0.0114    5.5648 C   0  0  0  0  0  4           0  0  0
   -1.3598    1.2049    3.3440 C   0  0  0  0  0  4           0  0  0
   -1.3330   -1.2052    3.3539 C   0  0  0  0  0  4           0  0  0
   -0.8455    1.2049    2.0443 C   0  0  0  0  0  4           0  0  0
   -0.8188   -1.2052    2.0543 C   0  0  0  0  0  4           0  0  0
   -3.2591    0.0053    7.9619 C   0  0  0  0  0  4           0  0  0
   -4.0882   -0.0083    6.8457 C   0  0  0  0  0  4           0  0  0
    2.0784    2.1650   -1.1065 C   0  0  0  0  0  4           0  0  0
    2.3036   -0.9867    0.0000 C   0  0  0  0  0  4           0  0  0
    3.6405    0.6434    0.1522 C   0  0  0  0  0  4           0  0  0
    0.0000    0.0000    0.0000 C   0  0  0  0  0  4           0  0  0
    2.2664    1.2615    0.1004 C   0  0  1  0  0  4           0  0  0
    1.8824   -2.4121   -0.1060 C   0  0  0  0  0  4           0  0  0
    1.8234   -2.8492   -1.5653 C   0  0  0  0  0  4           0  0  0
    1.3963   -4.3045   -1.7304 C   0  0  0  0  0  4           0  0  0
    1.3372   -4.7412   -3.1866 C   0  0  0  0  0  4           0  0  0
  1 21  1  0     0  0
  2  3  2  0     0  0
  2  4  1  0     0  0
  3  5  1  0     0  0
  4  8  1  0     0  0
  5  8  2  0     0  0
  6 22  2  0     0  0
  6 24  1  0     0  0
  6 25  1  0     0  0
  7 22  1  0     0  0
  7 23  2  0     0  0
  8  9  1  0     0  0
  9 10  1  0     0  0
  9 13  2  0     0  0
 10 11  1  0     0  0
 10 14  2  0     0  0
 11 15  2  0     0  0
 11 16  1  0     0  0
 12 17  2  0     0  0
 12 18  1  0     0  0
 12 24  1  0     0  0
 13 19  1  0     0  0
 14 20  1  0     0  0
 15 17  1  0     0  0
 16 18  2  0     0  0
 19 20  2  0     0  0
 21 25  1  0     0  0
 22 26  1  0     0  0
 23 25  1  0     0  0
 26 27  1  0     0  0
 27 28  1  0     0  0
 28 29  1  0     0  0
M  CHG  1   6   1
M  END
> <standard_type>
pIC50

> <# Confs.>
25

> <canonical_smiles>
CCCCC(N=CC1CO)=[N]1CC2=CC=C(C3=CC=CC=C3C4=NN=NN4)C=C2

> <standard_relation>
=

> <Publication_ID>
nan

> <predicted_activity_value>
7.823908740944319

> <actual_activity_value>
7.5376020021010435

> <Compound>
4

> <standard_units>
nM

> hash
11930142815789539851

$$$$
4_
XXILIB    08252103513D 0   0.00000     0.00000

 29 32  0     1  0            999 V2000
    2.4802    2.4884   -1.2407 O   0  0  0  0  0  2           0  0  0
    2.2445    0.4495    6.9500 N   0  0  0  0  0  3           0  0  0
    2.1874   -0.2171    5.8052 N   0  0  0  0  0  3           0  0  0
    0.9684    0.6015    7.3275 N   0  0  0  0  0  3           0  0  0
    0.8850   -0.4893    5.4551 N   0  0  0  0  0  3           0  0  0
    1.4768   -0.0000   -0.0000 N   0  3  0  0  0  4           0  0  0
    3.6330   -0.6003   -0.2547 N   0  0  0  0  0  3           0  0  0
    0.1337    0.0254    6.4085 C   0  0  0  0  0  4           0  0  0
   -1.3047    0.0092    6.5162 C   0  0  0  0  0  4           0  0  0
   -2.1389   -0.0014    5.3750 C   0  0  0  0  0  4           0  0  0
   -1.6098   -0.0004    4.0168 C   0  0  0  0  0  4           0  0  0
   -0.5728   -0.0000    1.3850 C   0  0  0  0  0  4           0  0  0
   -1.8748    0.0149    7.7999 C   0  0  0  0  0  4           0  0  0
   -3.5340   -0.0114    5.5648 C   0  0  0  0  0  4           0  0  0
   -1.3598    1.2049    3.3440 C   0  0  0  0  0  4           0  0  0
   -1.3330   -1.2052    3.3539 C   0  0  0  0  0  4           0  0  0
   -0.8455    1.2049    2.0443 C   0  0  0  0  0  4           0  0  0
   -0.8188   -1.2052    2.0543 C   0  0  0  0  0  4           0  0  0
   -3.2591    0.0053    7.9619 C   0  0  0  0  0  4           0  0  0
   -4.0882   -0.0083    6.8457 C   0  0  0  0  0  4           0  0  0
    2.0784    2.4282    0.1243 C   0  0  0  0  0  4           0  0  0
    2.3036   -0.8545   -0.4934 C   0  0  0  0  0  4           0  0  0
    3.6405    0.4811    0.4535 C   0  0  0  0  0  4           0  0  0
    0.0000    0.0000    0.0000 C   0  0  0  0  0  4           0  0  0
    2.2664    1.0423    0.7177 C   0  0  1  0  0  4           0  0  0
    1.8824   -2.0359   -1.2978 C   0  0  0  0  0  4           0  0  0
    1.6370   -3.2411   -0.3970 C   0  0  0  0  0  4           0  0  0
    1.2024   -4.4810   -1.1725 C   0  0  0  0  0  4           0  0  0
   -0.0895   -4.2702   -1.9479 C   0  0  0  0  0  4           0  0  0
  1 21  1  0     0  0
  2  3  2  0     0  0
  2  4  1  0     0  0
  3  5  1  0     0  0
  4  8  1  0     0  0
  5  8  2  0     0  0
  6 22  2  0     0  0
  6 24  1  0     0  0
  6 25  1  0     0  0
  7 22  1  0     0  0
  7 23  2  0     0  0
  8  9  1  0     0  0
  9 10  1  0     0  0
  9 13  2  0     0  0
 10 11  1  0     0  0
 10 14  2  0     0  0
 11 15  2  0     0  0
 11 16  1  0     0  0
 12 17  2  0     0  0
 12 18  1  0     0  0
 12 24  1  0     0  0
 13 19  1  0     0  0
 14 20  1  0     0  0
 15 17  1  0     0  0
 16 18  2  0     0  0
 19 20  2  0     0  0
 21 25  1  0     0  0
 22 26  1  0     0  0
 23 25  1  0     0  0
 26 27  1  0     0  0
 27 28  1  0     0  0
 28 29  1  0     0  0
M  CHG  1   6   1
M  END
> <standard_type>
pIC50

> <# Confs.>
25

> <canonical_smiles>
CCCCC(N=CC1CO)=[N]1CC2=CC=C(C3=CC=CC=C3C4=NN=NN4)C=C2

> <standard_relation>
=

> <Publication_ID>
nan

> <predicted_activity_value>
7.823908740944319

> <actual_activity_value>
7.5376020021010435

> <Compound>
4

> <standard_units>
nM

> hash
11930142815789539851

$$$$
4_
XXILIB    08252103513D 0   0.00000     0.00000

 29 32  0     1  0            999 V2000
    2.4802    2.4884   -1.2407 O   0  0  0  0  0  2           0  0  0
    2.2445    0.4495    6.9500 N   0  0  0  0  0  3           0  0  0
    2.1874   -0.2171    5.8052 N   0  0  0  0  0  3           0  0  0
    0.9684    0.6015    7.3275 N   0  0  0  0  0  3           0  0  0
    0.8850   -0.4893    5.4551 N   0  0  0  0  0  3           0  0  0
    1.4768   -0.0000   -0.0000 N   0  3  0  0  0  4           0  0  0
    3.6330   -0.6003   -0.2547 N   0  0  0  0  0  3           0  0  0
    0.1337    0.0254    6.4085 C   0  0  0  0  0  4           0  0  0
   -1.3047    0.0092    6.5162 C   0  0  0  0  0  4           0  0  0
   -2.1389   -0.0014    5.3750 C   0  0  0  0  0  4           0  0  0
   -1.6098   -0.0004    4.0168 C   0  0  0  0  0  4           0  0  0
   -0.5728   -0.0000    1.3850 C   0  0  0  0  0  4           0  0  0
   -1.8748    0.0149    7.7999 C   0  0  0  0  0  4           0  0  0
   -3.5340   -0.0114    5.5648 C   0  0  0  0  0  4           0  0  0
   -1.3598    1.2049    3.3440 C   0  0  0  0  0  4           0  0  0
   -1.3330   -1.2052    3.3539 C   0  0  0  0  0  4           0  0  0
   -0.8455    1.2049    2.0443 C   0  0  0  0  0  4           0  0  0
   -0.8188   -1.2052    2.0543 C   0  0  0  0  0  4           0  0  0
   -3.2591    0.0053    7.9619 C   0  0  0  0  0  4           0  0  0
   -4.0882   -0.0083    6.8457 C   0  0  0  0  0  4           0  0  0
    2.0784    2.4282    0.1243 C   0  0  0  0  0  4           0  0  0
    2.3036   -0.8545   -0.4934 C   0  0  0  0  0  4           0  0  0
    3.6405    0.4811    0.4535 C   0  0  0  0  0  4           0  0  0
    0.0000    0.0000    0.0000 C   0  0  0  0  0  4           0  0  0
    2.2664    1.0423    0.7177 C   0  0  1  0  0  4           0  0  0
    1.8824   -2.0359   -1.2978 C   0  0  0  0  0  4           0  0  0
    1.8234   -1.6849   -2.7802 C   0  0  0  0  0  4           0  0  0
    1.3963   -2.8625   -3.6508 C   0  0  0  0  0  4           0  0  0
    0.0157   -3.3921   -3.2926 C   0  0  0  0  0  4           0  0  0
  1 21  1  0     0  0
  2  3  2  0     0  0
  2  4  1  0     0  0
  3  5  1  0     0  0
  4  8  1  0     0  0
  5  8  2  0     0  0
  6 22  2  0     0  0
  6 24  1  0     0  0
  6 25  1  0     0  0
  7 22  1  0     0  0
  7 23  2  0     0  0
  8  9  1  0     0  0
  9 10  1  0     0  0
  9 13  2  0     0  0
 10 11  1  0     0  0
 10 14  2  0     0  0
 11 15  2  0     0  0
 11 16  1  0     0  0
 12 17  2  0     0  0
 12 18  1  0     0  0
 12 24  1  0     0  0
 13 19  1  0     0  0
 14 20  1  0     0  0
 15 17  1  0     0  0
 16 18  2  0     0  0
 19 20  2  0     0  0
 21 25  1  0     0  0
 22 26  1  0     0  0
 23 25  1  0     0  0
 26 27  1  0     0  0
 27 28  1  0     0  0
 28 29  1  0     0  0
M  CHG  1   6   1
M  END
> <standard_type>
pIC50

> <# Confs.>
25

> <canonical_smiles>
CCCCC(N=CC1CO)=[N]1CC2=CC=C(C3=CC=CC=C3C4=NN=NN4)C=C2

> <standard_relation>
=

> <Publication_ID>
nan

> <predicted_activity_value>
7.823908740944319

> <actual_activity_value>
7.5376020021010435

> <Compound>
4

> <standard_units>
nM

> hash
11930142815789539851

$$$$
4_
XXILIB    08252103513D 0   0.00000     0.00000

 29 32  0     1  0            999 V2000
    2.4802    2.4884   -1.2407 O   0  0  0  0  0  2           0  0  0
    1.4526    2.7172    6.6433 N   0  0  0  0  0  3           0  0  0
    1.7650    1.9056    5.6422 N   0  0  0  0  0  3           0  0  0
    0.2369    2.3227    7.0439 N   0  0  0  0  0  3           0  0  0
    0.7569    0.9996    5.4063 N   0  0  0  0  0  3           0  0  0
    1.4768   -0.0000   -0.0000 N   0  3  0  0  0  4           0  0  0
    3.6330   -0.6003   -0.2547 N   0  0  0  0  0  3           0  0  0
   -0.1903    1.2682    6.2832 C   0  0  0  0  0  4           0  0  0
   -1.4588    0.6035    6.4566 C   0  0  0  0  0  4           0  0  0
   -2.1389   -0.0014    5.3750 C   0  0  0  0  0  4           0  0  0
   -1.6098   -0.0004    4.0168 C   0  0  0  0  0  4           0  0  0
   -0.5728   -0.0000    1.3850 C   0  0  0  0  0  4           0  0  0
   -2.0238    0.5756    7.7422 C   0  0  0  0  0  4           0  0  0
   -3.3757   -0.6257    5.6260 C   0  0  0  0  0  4           0  0  0
   -1.3598    1.2049    3.3440 C   0  0  0  0  0  4           0  0  0
   -1.3330   -1.2052    3.3539 C   0  0  0  0  0  4           0  0  0
   -0.8455    1.2049    2.0443 C   0  0  0  0  0  4           0  0  0
   -0.8188   -1.2052    2.0543 C   0  0  0  0  0  4           0  0  0
   -3.2501   -0.0482    7.9654 C   0  0  0  0  0  4           0  0  0
   -3.9254   -0.6488    6.9086 C   0  0  0  0  0  4           0  0  0
    2.0784    2.4282    0.1243 C   0  0  0  0  0  4           0  0  0
    2.3036   -0.8545   -0.4934 C   0  0  0  0  0  4           0  0  0
    3.6405    0.4811    0.4535 C   0  0  0  0  0  4           0  0  0
    0.0000    0.0000    0.0000 C   0  0  0  0  0  4           0  0  0
    2.2664    1.0423    0.7177 C   0  0  1  0  0  4           0  0  0
    1.8824   -2.0359   -1.2978 C   0  0  0  0  0  4           0  0  0
    1.8234   -1.6849   -2.7802 C   0  0  0  0  0  4           0  0  0
    3.1680   -1.2220   -3.3329 C   0  0  0  0  0  4           0  0  0
    3.1096   -0.8715   -4.8122 C   0  0  0  0  0  4           0  0  0
  1 21  1  0     0  0
  2  3  2  0     0  0
  2  4  1  0     0  0
  3  5  1  0     0  0
  4  8  1  0     0  0
  5  8  2  0     0  0
  6 22  2  0     0  0
  6 24  1  0     0  0
  6 25  1  0     0  0
  7 22  1  0     0  0
  7 23  2  0     0  0
  8  9  1  0     0  0
  9 10  1  0     0  0
  9 13  2  0     0  0
 10 11  1  0     0  0
 10 14  2  0     0  0
 11 15  2  0     0  0
 11 16  1  0     0  0
 12 17  2  0     0  0
 12 18  1  0     0  0
 12 24  1  0     0  0
 13 19  1  0     0  0
 14 20  1  0     0  0
 15 17  1  0     0  0
 16 18  2  0     0  0
 19 20  2  0     0  0
 21 25  1  0     0  0
 22 26  1  0     0  0
 23 25  1  0     0  0
 26 27  1  0     0  0
 27 28  1  0     0  0
 28 29  1  0     0  0
M  CHG  1   6   1
M  END
> <standard_type>
pIC50

> <# Confs.>
25

> <canonical_smiles>
CCCCC(N=CC1CO)=[N]1CC2=CC=C(C3=CC=CC=C3C4=NN=NN4)C=C2

> <standard_relation>
=

> <Publication_ID>
nan

> <predicted_activity_value>
7.823908740944319

> <actual_activity_value>
7.5376020021010435

> <Compound>
4

> <standard_units>
nM

> hash
11930142815789539851

$$$$
4_
XXILIB    08252103513D 0   0.00000     0.00000

 29 32  0     1  0            999 V2000
    2.4802    2.4884   -1.2407 O   0  0  0  0  0  2           0  0  0
    1.0290    2.9945    6.6512 N   0  0  0  0  0  3           0  0  0
    0.7002    3.1326    5.3740 N   0  0  0  0  0  3           0  0  0
    0.1434    2.1195    7.1452 N   0  0  0  0  0  3           0  0  0
   -0.3863    2.3511    5.0551 N   0  0  0  0  0  3           0  0  0
    1.4768   -0.0000   -0.0000 N   0  3  0  0  0  4           0  0  0
    3.6330   -0.6003   -0.2547 N   0  0  0  0  0  3           0  0  0
   -0.7262    1.7252    6.1646 C   0  0  0  0  0  4           0  0  0
   -1.8023    0.7854    6.3638 C   0  0  0  0  0  4           0  0  0
   -2.2627   -0.0541    5.3238 C   0  0  0  0  0  4           0  0  0
   -1.6853   -0.0335    3.9856 C   0  0  0  0  0  4           0  0  0
   -0.5728   -0.0000    1.3850 C   0  0  0  0  0  4           0  0  0
   -2.4046    0.7241    7.6312 C   0  0  0  0  0  4           0  0  0
   -3.3216   -0.9408    5.5975 C   0  0  0  0  0  4           0  0  0
   -0.6065   -0.8672    3.6556 C   0  0  0  0  0  4           0  0  0
   -2.1996    0.8168    2.9954 C   0  0  0  0  0  4           0  0  0
   -0.0582   -0.8520    2.3699 C   0  0  0  0  0  4           0  0  0
   -1.6514    0.8320    1.7099 C   0  0  0  0  0  4           0  0  0
   -3.4520   -0.1619    7.8774 C   0  0  0  0  0  4           0  0  0
   -3.9100   -0.9940    6.8618 C   0  0  0  0  0  4           0  0  0
    2.0784    2.4282    0.1243 C   0  0  0  0  0  4           0  0  0
    2.3036   -0.8545   -0.4934 C   0  0  0  0  0  4           0  0  0
    3.6405    0.4811    0.4535 C   0  0  0  0  0  4           0  0  0
    0.0000    0.0000    0.0000 C   0  0  0  0  0  4           0  0  0
    2.2664    1.0423    0.7177 C   0  0  1  0  0  4           0  0  0
    1.8824   -2.0359   -1.2978 C   0  0  0  0  0  4           0  0  0
    1.8234   -1.6849   -2.7802 C   0  0  0  0  0  4           0  0  0
    1.3963   -2.8625   -3.6508 C   0  0  0  0  0  4           0  0  0
    1.3372   -2.5127   -5.1303 C   0  0  0  0  0  4           0  0  0
  1 21  1  0     0  0
  2  3  2  0     0  0
  2  4  1  0     0  0
  3  5  1  0     0  0
  4  8  1  0     0  0
  5  8  2  0     0  0
  6 22  2  0     0  0
  6 24  1  0     0  0
  6 25  1  0     0  0
  7 22  1  0     0  0
  7 23  2  0     0  0
  8  9  1  0     0  0
  9 10  1  0     0  0
  9 13  2  0     0  0
 10 11  1  0     0  0
 10 14  2  0     0  0
 11 15  2  0     0  0
 11 16  1  0     0  0
 12 17  2  0     0  0
 12 18  1  0     0  0
 12 24  1  0     0  0
 13 19  1  0     0  0
 14 20  1  0     0  0
 15 17  1  0     0  0
 16 18  2  0     0  0
 19 20  2  0     0  0
 21 25  1  0     0  0
 22 26  1  0     0  0
 23 25  1  0     0  0
 26 27  1  0     0  0
 27 28  1  0     0  0
 28 29  1  0     0  0
M  CHG  1   6   1
M  END
> <standard_type>
pIC50

> <# Confs.>
25

> <canonical_smiles>
CCCCC(N=CC1CO)=[N]1CC2=CC=C(C3=CC=CC=C3C4=NN=NN4)C=C2

> <standard_relation>
=

> <Publication_ID>
nan

> <predicted_activity_value>
7.823908740944319

> <actual_activity_value>
7.5376020021010435

> <Compound>
4

> <standard_units>
nM

> hash
11930142815789539851

$$$$
4_
XXILIB    08252103513D 0   0.00000     0.00000

 29 32  0     1  0            999 V2000
    2.4802    2.4884   -1.2407 O   0  0  0  0  0  2           0  0  0
    2.2445    0.4495    6.9500 N   0  0  0  0  0  3           0  0  0
    2.1874   -0.2171    5.8052 N   0  0  0  0  0  3           0  0  0
    0.9684    0.6015    7.3275 N   0  0  0  0  0  3           0  0  0
    0.8850   -0.4893    5.4551 N   0  0  0  0  0  3           0  0  0
    1.4768    0.0000   -0.0000 N   0  3  0  0  0  4           0  0  0
    3.6330   -0.6003   -0.2547 N   0  0  0  0  0  3           0  0  0
    0.1337    0.0254    6.4085 C   0  0  0  0  0  4           0  0  0
   -1.3047    0.0092    6.5162 C   0  0  0  0  0  4           0  0  0
   -2.1389   -0.0014    5.3750 C   0  0  0  0  0  4           0  0  0
   -1.6098   -0.0004    4.0168 C   0  0  0  0  0  4           0  0  0
   -0.5728   -0.0000    1.3850 C   0  0  0  0  0  4           0  0  0
   -1.8748    0.0149    7.7999 C   0  0  0  0  0  4           0  0  0
   -3.5340   -0.0114    5.5648 C   0  0  0  0  0  4           0  0  0
   -1.3598    1.2049    3.3440 C   0  0  0  0  0  4           0  0  0
   -1.3330   -1.2052    3.3539 C   0  0  0  0  0  4           0  0  0
   -0.8455    1.2049    2.0443 C   0  0  0  0  0  4           0  0  0
   -0.8188   -1.2052    2.0543 C   0  0  0  0  0  4           0  0  0
   -3.2591    0.0053    7.9619 C   0  0  0  0  0  4           0  0  0
   -4.0882   -0.0083    6.8457 C   0  0  0  0  0  4           0  0  0
    2.0784    2.4282    0.1243 C   0  0  0  0  0  4           0  0  0
    2.3036   -0.8545   -0.4934 C   0  0  0  0  0  4           0  0  0
    3.6405    0.4811    0.4535 C   0  0  0  0  0  4           0  0  0
    0.0000    0.0000    0.0000 C   0  0  0  0  0  4           0  0  0
    2.2664    1.0423    0.7177 C   0  0  1  0  0  4           0  0  0
    1.8824   -2.0359   -1.2978 C   0  0  0  0  0  4           0  0  0
    2.9588   -2.4092   -2.3108 C   0  0  0  0  0  4           0  0  0
    2.5770   -3.6158   -3.1628 C   0  0  0  0  0  4           0  0  0
    3.6509   -3.9887   -4.1739 C   0  0  0  0  0  4           0  0  0
  1 21  1  0     0  0
  2  3  2  0     0  0
  2  4  1  0     0  0
  3  5  1  0     0  0
  4  8  1  0     0  0
  5  8  2  0     0  0
  6 22  2  0     0  0
  6 24  1  0     0  0
  6 25  1  0     0  0
  7 22  1  0     0  0
  7 23  2  0     0  0
  8  9  1  0     0  0
  9 10  1  0     0  0
  9 13  2  0     0  0
 10 11  1  0     0  0
 10 14  2  0     0  0
 11 15  2  0     0  0
 11 16  1  0     0  0
 12 17  2  0     0  0
 12 18  1  0     0  0
 12 24  1  0     0  0
 13 19  1  0     0  0
 14 20  1  0     0  0
 15 17  1  0     0  0
 16 18  2  0     0  0
 19 20  2  0     0  0
 21 25  1  0     0  0
 22 26  1  0     0  0
 23 25  1  0     0  0
 26 27  1  0     0  0
 27 28  1  0     0  0
 28 29  1  0     0  0
M  CHG  1   6   1
M  END
> <standard_type>
pIC50

> <# Confs.>
25

> <canonical_smiles>
CCCCC(N=CC1CO)=[N]1CC2=CC=C(C3=CC=CC=C3C4=NN=NN4)C=C2

> <standard_relation>
=

> <Publication_ID>
nan

> <predicted_activity_value>
7.823908740944319

> <actual_activity_value>
7.5376020021010435

> <Compound>
4

> <standard_units>
nM

> hash
11930142815789539851

$$$$
4_
XXILIB    08252103513D 0   0.00000     0.00000

 29 32  0     1  0            999 V2000
    2.4802    2.4884   -1.2407 O   0  0  0  0  0  2           0  0  0
    1.4526    2.7172    6.6433 N   0  0  0  0  0  3           0  0  0
    1.7650    1.9056    5.6422 N   0  0  0  0  0  3           0  0  0
    0.2369    2.3227    7.0439 N   0  0  0  0  0  3           0  0  0
    0.7569    0.9996    5.4063 N   0  0  0  0  0  3           0  0  0
    1.4768   -0.0000   -0.0000 N   0  3  0  0  0  4           0  0  0
    3.6330   -0.6003   -0.2547 N   0  0  0  0  0  3           0  0  0
   -0.1903    1.2682    6.2832 C   0  0  0  0  0  4           0  0  0
   -1.4588    0.6035    6.4566 C   0  0  0  0  0  4           0  0  0
   -2.1389   -0.0014    5.3750 C   0  0  0  0  0  4           0  0  0
   -1.6098   -0.0004    4.0168 C   0  0  0  0  0  4           0  0  0
   -0.5728   -0.0000    1.3850 C   0  0  0  0  0  4           0  0  0
   -2.0238    0.5756    7.7422 C   0  0  0  0  0  4           0  0  0
   -3.3757   -0.6257    5.6260 C   0  0  0  0  0  4           0  0  0
   -1.3598    1.2049    3.3440 C   0  0  0  0  0  4           0  0  0
   -1.3330   -1.2052    3.3539 C   0  0  0  0  0  4           0  0  0
   -0.8455    1.2049    2.0443 C   0  0  0  0  0  4           0  0  0
   -0.8188   -1.2052    2.0543 C   0  0  0  0  0  4           0  0  0
   -3.2501   -0.0482    7.9654 C   0  0  0  0  0  4           0  0  0
   -3.9254   -0.6488    6.9086 C   0  0  0  0  0  4           0  0  0
    2.0784    2.4282    0.1243 C   0  0  0  0  0  4           0  0  0
    2.3036   -0.8545   -0.4934 C   0  0  0  0  0  4           0  0  0
    3.6405    0.4811    0.4535 C   0  0  0  0  0  4           0  0  0
    0.0000    0.0000    0.0000 C   0  0  0  0  0  4           0  0  0
    2.2664    1.0423    0.7177 C   0  0  1  0  0  4           0  0  0
    1.8824   -2.0359   -1.2978 C   0  0  0  0  0  4           0  0  0
    1.6370   -3.2411   -0.3970 C   0  0  0  0  0  4           0  0  0
    1.2024   -4.4810   -1.1725 C   0  0  0  0  0  4           0  0  0
   -0.0895   -4.2702   -1.9479 C   0  0  0  0  0  4           0  0  0
  1 21  1  0     0  0
  2  3  2  0     0  0
  2  4  1  0     0  0
  3  5  1  0     0  0
  4  8  1  0     0  0
  5  8  2  0     0  0
  6 22  2  0     0  0
  6 24  1  0     0  0
  6 25  1  0     0  0
  7 22  1  0     0  0
  7 23  2  0     0  0
  8  9  1  0     0  0
  9 10  1  0     0  0
  9 13  2  0     0  0
 10 11  1  0     0  0
 10 14  2  0     0  0
 11 15  2  0     0  0
 11 16  1  0     0  0
 12 17  2  0     0  0
 12 18  1  0     0  0
 12 24  1  0     0  0
 13 19  1  0     0  0
 14 20  1  0     0  0
 15 17  1  0     0  0
 16 18  2  0     0  0
 19 20  2  0     0  0
 21 25  1  0     0  0
 22 26  1  0     0  0
 23 25  1  0     0  0
 26 27  1  0     0  0
 27 28  1  0     0  0
 28 29  1  0     0  0
M  CHG  1   6   1
M  END
> <standard_type>
pIC50

> <# Confs.>
25

> <canonical_smiles>
CCCCC(N=CC1CO)=[N]1CC2=CC=C(C3=CC=CC=C3C4=NN=NN4)C=C2

> <standard_relation>
=

> <Publication_ID>
nan

> <predicted_activity_value>
7.823908740944319

> <actual_activity_value>
7.5376020021010435

> <Compound>
4

> <standard_units>
nM

> hash
11930142815789539851

$$$$
4_
XXILIB    08252103513D 0   0.00000     0.00000

 29 32  0     1  0            999 V2000
    2.4802    2.4884   -1.2407 O   0  0  0  0  0  2           0  0  0
    0.4968    3.5581    6.4353 N   0  0  0  0  0  3           0  0  0
    1.0444    2.7696    5.5206 N   0  0  0  0  0  3           0  0  0
   -0.6046    2.9107    6.8376 N   0  0  0  0  0  3           0  0  0
    0.2988    1.6274    5.3410 N   0  0  0  0  0  3           0  0  0
    1.4768   -0.0000   -0.0000 N   0  3  0  0  0  4           0  0  0
    3.6330   -0.6003   -0.2547 N   0  0  0  0  0  3           0  0  0
   -0.7262    1.7252    6.1646 C   0  0  0  0  0  4           0  0  0
   -1.8023    0.7854    6.3638 C   0  0  0  0  0  4           0  0  0
   -2.2627   -0.0541    5.3238 C   0  0  0  0  0  4           0  0  0
   -1.6853   -0.0335    3.9856 C   0  0  0  0  0  4           0  0  0
   -0.5728   -0.0000    1.3850 C   0  0  0  0  0  4           0  0  0
   -2.4046    0.7241    7.6312 C   0  0  0  0  0  4           0  0  0
   -3.3216   -0.9408    5.5975 C   0  0  0  0  0  4           0  0  0
   -0.6065   -0.8672    3.6556 C   0  0  0  0  0  4           0  0  0
   -2.1996    0.8168    2.9954 C   0  0  0  0  0  4           0  0  0
   -0.0582   -0.8520    2.3699 C   0  0  0  0  0  4           0  0  0
   -1.6514    0.8320    1.7099 C   0  0  0  0  0  4           0  0  0
   -3.4520   -0.1619    7.8774 C   0  0  0  0  0  4           0  0  0
   -3.9100   -0.9940    6.8618 C   0  0  0  0  0  4           0  0  0
    2.0784    2.4282    0.1243 C   0  0  0  0  0  4           0  0  0
    2.3036   -0.8545   -0.4934 C   0  0  0  0  0  4           0  0  0
    3.6405    0.4811    0.4535 C   0  0  0  0  0  4           0  0  0
    0.0000    0.0000    0.0000 C   0  0  0  0  0  4           0  0  0
    2.2664    1.0423    0.7177 C   0  0  1  0  0  4           0  0  0
    1.8824   -2.0359   -1.2978 C   0  0  0  0  0  4           0  0  0
    1.8234   -1.6849   -2.7802 C   0  0  0  0  0  4           0  0  0
    1.3963   -2.8625   -3.6508 C   0  0  0  0  0  4           0  0  0
    0.0157   -3.3921   -3.2926 C   0  0  0  0  0  4           0  0  0
  1 21  1  0     0  0
  2  3  2  0     0  0
  2  4  1  0     0  0
  3  5  1  0     0  0
  4  8  1  0     0  0
  5  8  2  0     0  0
  6 22  2  0     0  0
  6 24  1  0     0  0
  6 25  1  0     0  0
  7 22  1  0     0  0
  7 23  2  0     0  0
  8  9  1  0     0  0
  9 10  1  0     0  0
  9 13  2  0     0  0
 10 11  1  0     0  0
 10 14  2  0     0  0
 11 15  2  0     0  0
 11 16  1  0     0  0
 12 17  2  0     0  0
 12 18  1  0     0  0
 12 24  1  0     0  0
 13 19  1  0     0  0
 14 20  1  0     0  0
 15 17  1  0     0  0
 16 18  2  0     0  0
 19 20  2  0     0  0
 21 25  1  0     0  0
 22 26  1  0     0  0
 23 25  1  0     0  0
 26 27  1  0     0  0
 27 28  1  0     0  0
 28 29  1  0     0  0
M  CHG  1   6   1
M  END
> <standard_type>
pIC50

> <# Confs.>
25

> <canonical_smiles>
CCCCC(N=CC1CO)=[N]1CC2=CC=C(C3=CC=CC=C3C4=NN=NN4)C=C2

> <standard_relation>
=

> <Publication_ID>
nan

> <predicted_activity_value>
7.823908740944319

> <actual_activity_value>
7.5376020021010435

> <Compound>
4

> <standard_units>
nM

> hash
11930142815789539851

$$$$
4_
XXILIB    08252103513D 0   0.00000     0.00000

 29 32  0     1  0            999 V2000
    2.4802    1.5347   -2.3187 O   0  0  0  0  0  2           0  0  0
    2.2534   -0.3551    6.9478 N   0  0  0  0  0  3           0  0  0
    2.1811    0.3040    5.7995 N   0  0  0  0  0  3           0  0  0
    0.9812   -0.5299    7.3287 N   0  0  0  0  0  3           0  0  0
    0.8730    0.5474    5.4497 N   0  0  0  0  0  3           0  0  0
    1.4768   -0.0000    0.0000 N   0  3  0  0  0  4           0  0  0
    3.6330   -0.6472    0.0795 N   0  0  0  0  0  3           0  0  0
    0.1337    0.0254    6.4085 C   0  0  0  0  0  4           0  0  0
   -1.3047    0.0092    6.5162 C   0  0  0  0  0  4           0  0  0
   -2.1389   -0.0014    5.3750 C   0  0  0  0  0  4           0  0  0
   -1.6098   -0.0004    4.0168 C   0  0  0  0  0  4           0  0  0
   -0.5728   -0.0000    1.3850 C   0  0  0  0  0  4           0  0  0
   -1.8748    0.0149    7.7999 C   0  0  0  0  0  4           0  0  0
   -3.5340   -0.0114    5.5648 C   0  0  0  0  0  4           0  0  0
   -1.3598    1.2049    3.3440 C   0  0  0  0  0  4           0  0  0
   -1.3330   -1.2052    3.3539 C   0  0  0  0  0  4           0  0  0
   -0.8455    1.2049    2.0443 C   0  0  0  0  0  4           0  0  0
   -0.8188   -1.2052    2.0543 C   0  0  0  0  0  4           0  0  0
   -3.2591    0.0053    7.9619 C   0  0  0  0  0  4           0  0  0
   -4.0882   -0.0083    6.8457 C   0  0  0  0  0  4           0  0  0
    2.0784    2.1650   -1.1065 C   0  0  0  0  0  4           0  0  0
    2.3036   -0.9867    0.0000 C   0  0  0  0  0  4           0  0  0
    3.6405    0.6434    0.1522 C   0  0  0  0  0  4           0  0  0
    0.0000    0.0000    0.0000 C   0  0  0  0  0  4           0  0  0
    2.2664    1.2615    0.1004 C   0  0  1  0  0  4           0  0  0
    1.8824   -2.4121   -0.1060 C   0  0  0  0  0  4           0  0  0
    2.4934   -3.0638   -1.3413 C   0  0  0  0  0  4           0  0  0
    2.0799   -2.3763   -2.6390 C   0  0  0  0  0  4           0  0  0
    2.6893   -3.0263   -3.8722 C   0  0  0  0  0  4           0  0  0
  1 21  1  0     0  0
  2  3  2  0     0  0
  2  4  1  0     0  0
  3  5  1  0     0  0
  4  8  1  0     0  0
  5  8  2  0     0  0
  6 22  2  0     0  0
  6 24  1  0     0  0
  6 25  1  0     0  0
  7 22  1  0     0  0
  7 23  2  0     0  0
  8  9  1  0     0  0
  9 10  1  0     0  0
  9 13  2  0     0  0
 10 11  1  0     0  0
 10 14  2  0     0  0
 11 15  2  0     0  0
 11 16  1  0     0  0
 12 17  2  0     0  0
 12 18  1  0     0  0
 12 24  1  0     0  0
 13 19  1  0     0  0
 14 20  1  0     0  0
 15 17  1  0     0  0
 16 18  2  0     0  0
 19 20  2  0     0  0
 21 25  1  0     0  0
 22 26  1  0     0  0
 23 25  1  0     0  0
 26 27  1  0     0  0
 27 28  1  0     0  0
 28 29  1  0     0  0
M  CHG  1   6   1
M  END
> <standard_type>
pIC50

> <# Confs.>
25

> <canonical_smiles>
CCCCC(N=CC1CO)=[N]1CC2=CC=C(C3=CC=CC=C3C4=NN=NN4)C=C2

> <standard_relation>
=

> <Publication_ID>
nan

> <predicted_activity_value>
7.823908740944319

> <actual_activity_value>
7.5376020021010435

> <Compound>
4

> <standard_units>
nM

> hash
11930142815789539851

$$$$
4_
XXILIB    08252103513D 0   0.00000     0.00000

 29 32  0     1  0            999 V2000
    2.4802    2.4884   -1.2407 O   0  0  0  0  0  2           0  0  0
    1.4526    2.7172    6.6433 N   0  0  0  0  0  3           0  0  0
    1.7650    1.9056    5.6422 N   0  0  0  0  0  3           0  0  0
    0.2369    2.3227    7.0439 N   0  0  0  0  0  3           0  0  0
    0.7569    0.9996    5.4063 N   0  0  0  0  0  3           0  0  0
    1.4768    0.0000   -0.0000 N   0  3  0  0  0  4           0  0  0
    3.6330   -0.6003   -0.2547 N   0  0  0  0  0  3           0  0  0
   -0.1903    1.2682    6.2832 C   0  0  0  0  0  4           0  0  0
   -1.4588    0.6035    6.4566 C   0  0  0  0  0  4           0  0  0
   -2.1389   -0.0014    5.3750 C   0  0  0  0  0  4           0  0  0
   -1.6098   -0.0004    4.0168 C   0  0  0  0  0  4           0  0  0
   -0.5728   -0.0000    1.3850 C   0  0  0  0  0  4           0  0  0
   -2.0238    0.5756    7.7422 C   0  0  0  0  0  4           0  0  0
   -3.3757   -0.6257    5.6260 C   0  0  0  0  0  4           0  0  0
   -1.3598    1.2049    3.3440 C   0  0  0  0  0  4           0  0  0
   -1.3330   -1.2052    3.3539 C   0  0  0  0  0  4           0  0  0
   -0.8455    1.2049    2.0443 C   0  0  0  0  0  4           0  0  0
   -0.8188   -1.2052    2.0543 C   0  0  0  0  0  4           0  0  0
   -3.2501   -0.0482    7.9654 C   0  0  0  0  0  4           0  0  0
   -3.9254   -0.6488    6.9086 C   0  0  0  0  0  4           0  0  0
    2.0784    2.4282    0.1243 C   0  0  0  0  0  4           0  0  0
    2.3036   -0.8545   -0.4934 C   0  0  0  0  0  4           0  0  0
    3.6405    0.4811    0.4535 C   0  0  0  0  0  4           0  0  0
    0.0000    0.0000    0.0000 C   0  0  0  0  0  4           0  0  0
    2.2664    1.0423    0.7177 C   0  0  1  0  0  4           0  0  0
    1.8824   -2.0359   -1.2978 C   0  0  0  0  0  4           0  0  0
    2.3319   -3.3304   -0.6297 C   0  0  0  0  0  4           0  0  0
    1.9251   -4.5739   -1.4144 C   0  0  0  0  0  4           0  0  0
    2.3734   -5.8660   -0.7481 C   0  0  0  0  0  4           0  0  0
  1 21  1  0     0  0
  2  3  2  0     0  0
  2  4  1  0     0  0
  3  5  1  0     0  0
  4  8  1  0     0  0
  5  8  2  0     0  0
  6 22  2  0     0  0
  6 24  1  0     0  0
  6 25  1  0     0  0
  7 22  1  0     0  0
  7 23  2  0     0  0
  8  9  1  0     0  0
  9 10  1  0     0  0
  9 13  2  0     0  0
 10 11  1  0     0  0
 10 14  2  0     0  0
 11 15  2  0     0  0
 11 16  1  0     0  0
 12 17  2  0     0  0
 12 18  1  0     0  0
 12 24  1  0     0  0
 13 19  1  0     0  0
 14 20  1  0     0  0
 15 17  1  0     0  0
 16 18  2  0     0  0
 19 20  2  0     0  0
 21 25  1  0     0  0
 22 26  1  0     0  0
 23 25  1  0     0  0
 26 27  1  0     0  0
 27 28  1  0     0  0
 28 29  1  0     0  0
M  CHG  1   6   1
M  END
> <standard_type>
pIC50

> <# Confs.>
25

> <canonical_smiles>
CCCCC(N=CC1CO)=[N]1CC2=CC=C(C3=CC=CC=C3C4=NN=NN4)C=C2

> <standard_relation>
=

> <Publication_ID>
nan

> <predicted_activity_value>
7.823908740944319

> <actual_activity_value>
7.5376020021010435

> <Compound>
4

> <standard_units>
nM

> hash
11930142815789539851

$$$$
2_
XXILIB    08252103513D 0   0.00000     0.00000

 30 33  0     1  0            999 V2000
    5.0018    1.5001    0.0754 Cl  0  0  0  0  0  1           0  0  0
    1.6088    2.9014    1.4055 O   0  0  0  0  0  2           0  0  0
   -5.3910   -1.4412    2.9777 N   0  0  0  0  0  3           0  0  0
   -5.3189   -2.5916    3.6333 N   0  0  0  0  0  3           0  0  0
   -4.6472   -0.5866    3.6928 N   0  0  0  0  0  3           0  0  0
   -4.5362   -2.4722    4.7581 N   0  0  0  0  0  3           0  0  0
    1.4523    0.0000    0.0000 N   0  0  0  0  0  3           0  0  0
    3.5402   -0.7587    0.0177 N   0  0  0  0  0  3           0  0  0
    3.5479    0.6111    0.0382 C   0  0  0  0  0  4           0  0  0
   -4.1215   -1.2207    4.7857 C   0  0  0  0  0  4           0  0  0
    2.2705   -1.1132    0.0000 C   0  0  0  0  0  4           0  0  0
    2.2622    1.1181    0.0299 C   0  0  0  0  0  4           0  0  0
   -3.2747   -0.5838    5.7647 C   0  0  0  0  0  4           0  0  0
   -2.0364    0.0012    5.4141 C   0  0  0  0  0  4           0  0  0
   -1.5275    0.0005    4.0481 C   0  0  0  0  0  4           0  0  0
   -0.5412    0.0000    1.3973 C   0  0  0  0  0  4           0  0  0
   -3.7044   -0.5629    7.1019 C   0  0  0  0  0  4           0  0  0
   -1.2671    0.6012    6.4297 C   0  0  0  0  0  4           0  0  0
   -1.2884   -1.2046    3.3712 C   0  0  0  0  0  4           0  0  0
   -1.2624    1.2052    3.3807 C   0  0  0  0  0  4           0  0  0
   -0.7987   -1.2048    2.0620 C   0  0  0  0  0  4           0  0  0
   -0.7726    1.2049    2.0716 C   0  0  0  0  0  4           0  0  0
   -2.9250    0.0369    8.0896 C   0  0  0  0  0  4           0  0  0
   -1.7078    0.6199    7.7539 C   0  0  0  0  0  4           0  0  0
    1.7712    2.5125    0.0484 C   0  0  0  0  0  4           0  0  0
    0.0000   -0.0000    0.0000 C   0  0  0  0  0  4           0  0  0
    1.7871   -2.5213   -0.0137 C   0  0  0  0  0  4           0  0  0
    2.5640   -3.3678   -1.0157 C   0  0  0  0  0  4           0  0  0
    2.1181   -4.8292   -1.0819 C   0  0  0  0  0  4           0  0  0
    2.9134   -5.6445   -2.0907 C   0  0  0  0  0  4           0  0  0
  1  9  1  0     0  0
  2 25  1  0     0  0
  3  4  2  0     0  0
  3  5  1  0     0  0
  4  6  1  0     0  0
  5 10  1  0     0  0
  6 10  2  0     0  0
  7 11  1  0     0  0
  7 12  1  0     0  0
  7 26  1  0     0  0
  8  9  1  0     0  0
  8 11  2  0     0  0
  9 12  2  0     0  0
 10 13  1  0     0  0
 11 27  1  0     0  0
 12 25  1  0     0  0
 13 14  1  0     0  0
 13 17  2  0     0  0
 14 15  1  0     0  0
 14 18  2  0     0  0
 15 19  2  0     0  0
 15 20  1  0     0  0
 16 21  2  0     0  0
 16 22  1  0     0  0
 16 26  1  0     0  0
 17 23  1  0     0  0
 18 24  1  0     0  0
 19 21  1  0     0  0
 20 22  2  0     0  0
 23 24  2  0     0  0
 27 28  1  0     0  0
 28 29  1  0     0  0
 29 30  1  0     0  0
M  END
> <standard_type>
pIC50

> <# Confs.>
25

> <canonical_smiles>
ClC(N=C1CCCC)=C(CO)N1CC2=CC=C(C3=CC=CC=C3C4=NN=NN4)C=C2

> <standard_relation>
=

> <Publication_ID>
nan

> <predicted_activity_value>
7.853871964321762

> <actual_activity_value>
7.721246399047171

> <Compound>
2

> <standard_units>
nM

> hash
1860001942647851610

$$$$
2_
XXILIB    08252103513D 0   0.00000     0.00000

 30 33  0     1  0            999 V2000
    5.0018    1.5001    0.0754 Cl  0  0  0  0  0  1           0  0  0
    1.6088    2.9014    1.4055 O   0  0  0  0  0  2           0  0  0
    2.0595   -1.5386    5.7448 N   0  0  0  0  0  3           0  0  0
    1.5495   -2.6808    6.1847 N   0  0  0  0  0  3           0  0  0
    1.0508   -0.6594    5.8109 N   0  0  0  0  0  3           0  0  0
    0.2258   -2.5322    6.5281 N   0  0  0  0  0  3           0  0  0
    1.4523    0.0000    0.0000 N   0  0  0  0  0  3           0  0  0
    3.5402   -0.7587    0.0177 N   0  0  0  0  0  3           0  0  0
    3.5479    0.6111    0.0382 C   0  0  0  0  0  4           0  0  0
   -0.0750   -1.2699    6.2931 C   0  0  0  0  0  4           0  0  0
    2.2705   -1.1132    0.0000 C   0  0  0  0  0  4           0  0  0
    2.2622    1.1181    0.0299 C   0  0  0  0  0  4           0  0  0
   -1.3406   -0.6047    6.4852 C   0  0  0  0  0  4           0  0  0
   -2.0364    0.0012    5.4141 C   0  0  0  0  0  4           0  0  0
   -1.5275    0.0005    4.0481 C   0  0  0  0  0  4           0  0  0
   -0.5412    0.0000    1.3973 C   0  0  0  0  0  4           0  0  0
   -1.8769   -0.5587    7.7827 C   0  0  0  0  0  4           0  0  0
   -3.2654    0.6330    5.6853 C   0  0  0  0  0  4           0  0  0
   -1.2884   -1.2046    3.3712 C   0  0  0  0  0  4           0  0  0
   -1.2624    1.2052    3.3807 C   0  0  0  0  0  4           0  0  0
   -0.7987   -1.2048    2.0620 C   0  0  0  0  0  4           0  0  0
   -0.7726    1.2049    2.0716 C   0  0  0  0  0  4           0  0  0
   -3.0953    0.0729    8.0261 C   0  0  0  0  0  4           0  0  0
   -3.7901    0.6672    6.9782 C   0  0  0  0  0  4           0  0  0
    1.7712    2.5125    0.0484 C   0  0  0  0  0  4           0  0  0
    0.0000    0.0000    0.0000 C   0  0  0  0  0  4           0  0  0
    1.7871   -2.5213   -0.0137 C   0  0  0  0  0  4           0  0  0
    2.5640   -3.3678   -1.0157 C   0  0  0  0  0  4           0  0  0
    2.1181   -4.8292   -1.0819 C   0  0  0  0  0  4           0  0  0
    2.9134   -5.6445   -2.0907 C   0  0  0  0  0  4           0  0  0
  1  9  1  0     0  0
  2 25  1  0     0  0
  3  4  2  0     0  0
  3  5  1  0     0  0
  4  6  1  0     0  0
  5 10  1  0     0  0
  6 10  2  0     0  0
  7 11  1  0     0  0
  7 12  1  0     0  0
  7 26  1  0     0  0
  8  9  1  0     0  0
  8 11  2  0     0  0
  9 12  2  0     0  0
 10 13  1  0     0  0
 11 27  1  0     0  0
 12 25  1  0     0  0
 13 14  1  0     0  0
 13 17  2  0     0  0
 14 15  1  0     0  0
 14 18  2  0     0  0
 15 19  2  0     0  0
 15 20  1  0     0  0
 16 21  2  0     0  0
 16 22  1  0     0  0
 16 26  1  0     0  0
 17 23  1  0     0  0
 18 24  1  0     0  0
 19 21  1  0     0  0
 20 22  2  0     0  0
 23 24  2  0     0  0
 27 28  1  0     0  0
 28 29  1  0     0  0
 29 30  1  0     0  0
M  END
> <standard_type>
pIC50

> <# Confs.>
25

> <canonical_smiles>
ClC(N=C1CCCC)=C(CO)N1CC2=CC=C(C3=CC=CC=C3C4=NN=NN4)C=C2

> <standard_relation>
=

> <Publication_ID>
nan

> <predicted_activity_value>
7.853871964321762

> <actual_activity_value>
7.721246399047171

> <Compound>
2

> <standard_units>
nM

> hash
1860001942647851610

$$$$
2_
XXILIB    08252103513D 0   0.00000     0.00000

 30 33  0     1  0            999 V2000
    5.0018    1.5001    0.0754 Cl  0  0  0  0  0  1           0  0  0
    1.6088    2.9014    1.4055 O   0  0  0  0  0  2           0  0  0
   -5.3910   -1.4412    2.9777 N   0  0  0  0  0  3           0  0  0
   -5.3189   -2.5916    3.6333 N   0  0  0  0  0  3           0  0  0
   -4.6472   -0.5866    3.6928 N   0  0  0  0  0  3           0  0  0
   -4.5362   -2.4722    4.7581 N   0  0  0  0  0  3           0  0  0
    1.4523    0.0000    0.0000 N   0  0  0  0  0  3           0  0  0
    3.5402   -0.7587    0.0177 N   0  0  0  0  0  3           0  0  0
    3.5479    0.6111    0.0382 C   0  0  0  0  0  4           0  0  0
   -4.1215   -1.2207    4.7857 C   0  0  0  0  0  4           0  0  0
    2.2705   -1.1132    0.0000 C   0  0  0  0  0  4           0  0  0
    2.2622    1.1181    0.0299 C   0  0  0  0  0  4           0  0  0
   -3.2747   -0.5838    5.7647 C   0  0  0  0  0  4           0  0  0
   -2.0364    0.0012    5.4141 C   0  0  0  0  0  4           0  0  0
   -1.5275    0.0005    4.0481 C   0  0  0  0  0  4           0  0  0
   -0.5412    0.0000    1.3973 C   0  0  0  0  0  4           0  0  0
   -3.7044   -0.5629    7.1019 C   0  0  0  0  0  4           0  0  0
   -1.2671    0.6012    6.4297 C   0  0  0  0  0  4           0  0  0
   -1.2884   -1.2046    3.3712 C   0  0  0  0  0  4           0  0  0
   -1.2624    1.2052    3.3807 C   0  0  0  0  0  4           0  0  0
   -0.7987   -1.2048    2.0620 C   0  0  0  0  0  4           0  0  0
   -0.7726    1.2049    2.0716 C   0  0  0  0  0  4           0  0  0
   -2.9250    0.0369    8.0896 C   0  0  0  0  0  4           0  0  0
   -1.7078    0.6199    7.7539 C   0  0  0  0  0  4           0  0  0
    1.7712    2.5125    0.0484 C   0  0  0  0  0  4           0  0  0
    0.0000   -0.0000    0.0000 C   0  0  0  0  0  4           0  0  0
    1.7871   -2.5213   -0.0137 C   0  0  0  0  0  4           0  0  0
    2.5640   -3.3678   -1.0157 C   0  0  0  0  0  4           0  0  0
    2.4668   -2.8768   -2.4609 C   0  0  0  0  0  4           0  0  0
    3.2529   -3.7434   -3.4334 C   0  0  0  0  0  4           0  0  0
  1  9  1  0     0  0
  2 25  1  0     0  0
  3  4  2  0     0  0
  3  5  1  0     0  0
  4  6  1  0     0  0
  5 10  1  0     0  0
  6 10  2  0     0  0
  7 11  1  0     0  0
  7 12  1  0     0  0
  7 26  1  0     0  0
  8  9  1  0     0  0
  8 11  2  0     0  0
  9 12  2  0     0  0
 10 13  1  0     0  0
 11 27  1  0     0  0
 12 25  1  0     0  0
 13 14  1  0     0  0
 13 17  2  0     0  0
 14 15  1  0     0  0
 14 18  2  0     0  0
 15 19  2  0     0  0
 15 20  1  0     0  0
 16 21  2  0     0  0
 16 22  1  0     0  0
 16 26  1  0     0  0
 17 23  1  0     0  0
 18 24  1  0     0  0
 19 21  1  0     0  0
 20 22  2  0     0  0
 23 24  2  0     0  0
 27 28  1  0     0  0
 28 29  1  0     0  0
 29 30  1  0     0  0
M  END
> <standard_type>
pIC50

> <# Confs.>
25

> <canonical_smiles>
ClC(N=C1CCCC)=C(CO)N1CC2=CC=C(C3=CC=CC=C3C4=NN=NN4)C=C2

> <standard_relation>
=

> <Publication_ID>
nan

> <predicted_activity_value>
7.853871964321762

> <actual_activity_value>
7.721246399047171

> <Compound>
2

> <standard_units>
nM

> hash
1860001942647851610

$$$$
2_
XXILIB    08252103513D 0   0.00000     0.00000

 30 33  0     1  0            999 V2000
    5.0018    1.5001    0.0754 Cl  0  0  0  0  0  1           0  0  0
    1.6088    2.9014    1.4055 O   0  0  0  0  0  2           0  0  0
    2.0595   -1.5386    5.7448 N   0  0  0  0  0  3           0  0  0
    1.5495   -2.6808    6.1847 N   0  0  0  0  0  3           0  0  0
    1.0508   -0.6594    5.8109 N   0  0  0  0  0  3           0  0  0
    0.2258   -2.5322    6.5281 N   0  0  0  0  0  3           0  0  0
    1.4523    0.0000    0.0000 N   0  0  0  0  0  3           0  0  0
    3.5402   -0.7587    0.0177 N   0  0  0  0  0  3           0  0  0
    3.5479    0.6111    0.0382 C   0  0  0  0  0  4           0  0  0
   -0.0750   -1.2699    6.2931 C   0  0  0  0  0  4           0  0  0
    2.2705   -1.1132    0.0000 C   0  0  0  0  0  4           0  0  0
    2.2622    1.1181    0.0299 C   0  0  0  0  0  4           0  0  0
   -1.3406   -0.6047    6.4852 C   0  0  0  0  0  4           0  0  0
   -2.0364    0.0012    5.4141 C   0  0  0  0  0  4           0  0  0
   -1.5275    0.0005    4.0481 C   0  0  0  0  0  4           0  0  0
   -0.5412    0.0000    1.3973 C   0  0  0  0  0  4           0  0  0
   -1.8769   -0.5587    7.7827 C   0  0  0  0  0  4           0  0  0
   -3.2654    0.6330    5.6853 C   0  0  0  0  0  4           0  0  0
   -1.2884   -1.2046    3.3712 C   0  0  0  0  0  4           0  0  0
   -1.2624    1.2052    3.3807 C   0  0  0  0  0  4           0  0  0
   -0.7987   -1.2048    2.0620 C   0  0  0  0  0  4           0  0  0
   -0.7726    1.2049    2.0716 C   0  0  0  0  0  4           0  0  0
   -3.0953    0.0729    8.0261 C   0  0  0  0  0  4           0  0  0
   -3.7901    0.6672    6.9782 C   0  0  0  0  0  4           0  0  0
    1.7712    2.5125    0.0484 C   0  0  0  0  0  4           0  0  0
    0.0000    0.0000    0.0000 C   0  0  0  0  0  4           0  0  0
    1.7871   -2.5213   -0.0137 C   0  0  0  0  0  4           0  0  0
    2.5640   -3.3678   -1.0157 C   0  0  0  0  0  4           0  0  0
    2.4668   -2.8768   -2.4609 C   0  0  0  0  0  4           0  0  0
    3.2529   -3.7434   -3.4334 C   0  0  0  0  0  4           0  0  0
  1  9  1  0     0  0
  2 25  1  0     0  0
  3  4  2  0     0  0
  3  5  1  0     0  0
  4  6  1  0     0  0
  5 10  1  0     0  0
  6 10  2  0     0  0
  7 11  1  0     0  0
  7 12  1  0     0  0
  7 26  1  0     0  0
  8  9  1  0     0  0
  8 11  2  0     0  0
  9 12  2  0     0  0
 10 13  1  0     0  0
 11 27  1  0     0  0
 12 25  1  0     0  0
 13 14  1  0     0  0
 13 17  2  0     0  0
 14 15  1  0     0  0
 14 18  2  0     0  0
 15 19  2  0     0  0
 15 20  1  0     0  0
 16 21  2  0     0  0
 16 22  1  0     0  0
 16 26  1  0     0  0
 17 23  1  0     0  0
 18 24  1  0     0  0
 19 21  1  0     0  0
 20 22  2  0     0  0
 23 24  2  0     0  0
 27 28  1  0     0  0
 28 29  1  0     0  0
 29 30  1  0     0  0
M  END
> <standard_type>
pIC50

> <# Confs.>
25

> <canonical_smiles>
ClC(N=C1CCCC)=C(CO)N1CC2=CC=C(C3=CC=CC=C3C4=NN=NN4)C=C2

> <standard_relation>
=

> <Publication_ID>
nan

> <predicted_activity_value>
7.853871964321762

> <actual_activity_value>
7.721246399047171

> <Compound>
2

> <standard_units>
nM

> hash
1860001942647851610

$$$$
2_
XXILIB    08252103513D 0   0.00000     0.00000

 30 33  0     1  0            999 V2000
    5.0018   -1.5001   -0.0754 Cl  0  0  0  0  0  1           0  0  0
    1.6088   -2.9014   -1.4055 O   0  0  0  0  0  2           0  0  0
   -0.0511    3.8132    5.0461 N   0  0  0  0  0  3           0  0  0
   -1.2215    4.4117    5.2204 N   0  0  0  0  0  3           0  0  0
   -0.2591    2.5359    5.3926 N   0  0  0  0  0  3           0  0  0
   -2.1686    3.5239    5.6752 N   0  0  0  0  0  3           0  0  0
    1.4523   -0.0000   -0.0000 N   0  0  0  0  0  3           0  0  0
    3.5402    0.7587   -0.0177 N   0  0  0  0  0  3           0  0  0
    3.5479   -0.6111   -0.0382 C   0  0  0  0  0  4           0  0  0
   -1.5601    2.3584    5.7778 C   0  0  0  0  0  4           0  0  0
    2.2705    1.1132    0.0000 C   0  0  0  0  0  4           0  0  0
    2.2622   -1.1181   -0.0299 C   0  0  0  0  0  4           0  0  0
   -2.1134    1.0997    6.2146 C   0  0  0  0  0  4           0  0  0
   -2.1258   -0.0409    5.3794 C   0  0  0  0  0  4           0  0  0
   -1.5873   -0.0271    4.0249 C   0  0  0  0  0  4           0  0  0
   -0.5412    0.0000    1.3973 C   0  0  0  0  0  4           0  0  0
   -2.6602    1.0267    7.5064 C   0  0  0  0  0  4           0  0  0
   -2.6868   -1.2318    5.8798 C   0  0  0  0  0  4           0  0  0
   -2.1086    0.8402    3.0535 C   0  0  0  0  0  4           0  0  0
   -0.5377   -0.8833    3.6614 C   0  0  0  0  0  4           0  0  0
   -1.5932    0.8520    1.7543 C   0  0  0  0  0  4           0  0  0
   -0.0224   -0.8716    2.3622 C   0  0  0  0  0  4           0  0  0
   -3.2102   -0.1636    7.9791 C   0  0  0  0  0  4           0  0  0
   -3.2223   -1.2927    7.1673 C   0  0  0  0  0  4           0  0  0
    1.7712   -2.5125   -0.0484 C   0  0  0  0  0  4           0  0  0
    0.0000    0.0000    0.0000 C   0  0  0  0  0  4           0  0  0
    1.7871    2.5213    0.0137 C   0  0  0  0  0  4           0  0  0
    1.5933    3.0579   -1.4000 C   0  0  0  0  0  4           0  0  0
    1.0965    4.5032   -1.4603 C   0  0  0  0  0  4           0  0  0
    0.9141    5.0064   -2.8845 C   0  0  0  0  0  4           0  0  0
  1  9  1  0     0  0
  2 25  1  0     0  0
  3  4  2  0     0  0
  3  5  1  0     0  0
  4  6  1  0     0  0
  5 10  1  0     0  0
  6 10  2  0     0  0
  7 11  1  0     0  0
  7 12  1  0     0  0
  7 26  1  0     0  0
  8  9  1  0     0  0
  8 11  2  0     0  0
  9 12  2  0     0  0
 10 13  1  0     0  0
 11 27  1  0     0  0
 12 25  1  0     0  0
 13 14  1  0     0  0
 13 17  2  0     0  0
 14 15  1  0     0  0
 14 18  2  0     0  0
 15 19  2  0     0  0
 15 20  1  0     0  0
 16 21  2  0     0  0
 16 22  1  0     0  0
 16 26  1  0     0  0
 17 23  1  0     0  0
 18 24  1  0     0  0
 19 21  1  0     0  0
 20 22  2  0     0  0
 23 24  2  0     0  0
 27 28  1  0     0  0
 28 29  1  0     0  0
 29 30  1  0     0  0
M  END
> <standard_type>
pIC50

> <# Confs.>
25

> <canonical_smiles>
ClC(N=C1CCCC)=C(CO)N1CC2=CC=C(C3=CC=CC=C3C4=NN=NN4)C=C2

> <standard_relation>
=

> <Publication_ID>
nan

> <predicted_activity_value>
7.853871964321762

> <actual_activity_value>
7.721246399047171

> <Compound>
2

> <standard_units>
nM

> hash
1860001942647851610

$$$$
2_
XXILIB    08252103513D 0   0.00000     0.00000

 30 33  0     1  0            999 V2000
    5.0018   -1.5001   -0.0754 Cl  0  0  0  0  0  1           0  0  0
    1.6088   -2.9014   -1.4055 O   0  0  0  0  0  2           0  0  0
   -0.0511    3.8132    5.0461 N   0  0  0  0  0  3           0  0  0
   -1.2215    4.4117    5.2204 N   0  0  0  0  0  3           0  0  0
   -0.2591    2.5359    5.3926 N   0  0  0  0  0  3           0  0  0
   -2.1686    3.5239    5.6752 N   0  0  0  0  0  3           0  0  0
    1.4523    0.0000    0.0000 N   0  0  0  0  0  3           0  0  0
    3.5402    0.7587   -0.0177 N   0  0  0  0  0  3           0  0  0
    3.5479   -0.6111   -0.0382 C   0  0  0  0  0  4           0  0  0
   -1.5601    2.3584    5.7778 C   0  0  0  0  0  4           0  0  0
    2.2705    1.1132    0.0000 C   0  0  0  0  0  4           0  0  0
    2.2622   -1.1181   -0.0299 C   0  0  0  0  0  4           0  0  0
   -2.1134    1.0997    6.2146 C   0  0  0  0  0  4           0  0  0
   -2.1258   -0.0409    5.3794 C   0  0  0  0  0  4           0  0  0
   -1.5873   -0.0271    4.0249 C   0  0  0  0  0  4           0  0  0
   -0.5412    0.0000    1.3973 C   0  0  0  0  0  4           0  0  0
   -2.6602    1.0267    7.5064 C   0  0  0  0  0  4           0  0  0
   -2.6868   -1.2318    5.8798 C   0  0  0  0  0  4           0  0  0
   -2.1086    0.8402    3.0535 C   0  0  0  0  0  4           0  0  0
   -0.5377   -0.8833    3.6614 C   0  0  0  0  0  4           0  0  0
   -1.5932    0.8520    1.7543 C   0  0  0  0  0  4           0  0  0
   -0.0224   -0.8716    2.3622 C   0  0  0  0  0  4           0  0  0
   -3.2102   -0.1636    7.9791 C   0  0  0  0  0  4           0  0  0
   -3.2223   -1.2927    7.1673 C   0  0  0  0  0  4           0  0  0
    1.7712   -2.5125   -0.0484 C   0  0  0  0  0  4           0  0  0
    0.0000    0.0000    0.0000 C   0  0  0  0  0  4           0  0  0
    1.7871    2.5213    0.0137 C   0  0  0  0  0  4           0  0  0
    2.5640    3.3678    1.0157 C   0  0  0  0  0  4           0  0  0
    2.4668    2.8768    2.4609 C   0  0  0  0  0  4           0  0  0
    3.2529    3.7434    3.4334 C   0  0  0  0  0  4           0  0  0
  1  9  1  0     0  0
  2 25  1  0     0  0
  3  4  2  0     0  0
  3  5  1  0     0  0
  4  6  1  0     0  0
  5 10  1  0     0  0
  6 10  2  0     0  0
  7 11  1  0     0  0
  7 12  1  0     0  0
  7 26  1  0     0  0
  8  9  1  0     0  0
  8 11  2  0     0  0
  9 12  2  0     0  0
 10 13  1  0     0  0
 11 27  1  0     0  0
 12 25  1  0     0  0
 13 14  1  0     0  0
 13 17  2  0     0  0
 14 15  1  0     0  0
 14 18  2  0     0  0
 15 19  2  0     0  0
 15 20  1  0     0  0
 16 21  2  0     0  0
 16 22  1  0     0  0
 16 26  1  0     0  0
 17 23  1  0     0  0
 18 24  1  0     0  0
 19 21  1  0     0  0
 20 22  2  0     0  0
 23 24  2  0     0  0
 27 28  1  0     0  0
 28 29  1  0     0  0
 29 30  1  0     0  0
M  END
> <standard_type>
pIC50

> <# Confs.>
25

> <canonical_smiles>
ClC(N=C1CCCC)=C(CO)N1CC2=CC=C(C3=CC=CC=C3C4=NN=NN4)C=C2

> <standard_relation>
=

> <Publication_ID>
nan

> <predicted_activity_value>
7.853871964321762

> <actual_activity_value>
7.721246399047171

> <Compound>
2

> <standard_units>
nM

> hash
1860001942647851610

$$$$
2_
XXILIB    08252103513D 0   0.00000     0.00000

 30 33  0     1  0            999 V2000
    5.0018   -1.5001   -0.0754 Cl  0  0  0  0  0  1           0  0  0
    1.6088   -2.9014   -1.4055 O   0  0  0  0  0  2           0  0  0
   -0.0511    3.8132    5.0461 N   0  0  0  0  0  3           0  0  0
   -1.2215    4.4117    5.2204 N   0  0  0  0  0  3           0  0  0
   -0.2591    2.5359    5.3926 N   0  0  0  0  0  3           0  0  0
   -2.1686    3.5239    5.6752 N   0  0  0  0  0  3           0  0  0
    1.4523   -0.0000   -0.0000 N   0  0  0  0  0  3           0  0  0
    3.5402    0.7587   -0.0177 N   0  0  0  0  0  3           0  0  0
    3.5479   -0.6111   -0.0382 C   0  0  0  0  0  4           0  0  0
   -1.5601    2.3584    5.7778 C   0  0  0  0  0  4           0  0  0
    2.2705    1.1132    0.0000 C   0  0  0  0  0  4           0  0  0
    2.2622   -1.1181   -0.0299 C   0  0  0  0  0  4           0  0  0
   -2.1134    1.0997    6.2146 C   0  0  0  0  0  4           0  0  0
   -2.1258   -0.0409    5.3794 C   0  0  0  0  0  4           0  0  0
   -1.5873   -0.0271    4.0249 C   0  0  0  0  0  4           0  0  0
   -0.5412    0.0000    1.3973 C   0  0  0  0  0  4           0  0  0
   -2.6602    1.0267    7.5064 C   0  0  0  0  0  4           0  0  0
   -2.6868   -1.2318    5.8798 C   0  0  0  0  0  4           0  0  0
   -2.1086    0.8402    3.0535 C   0  0  0  0  0  4           0  0  0
   -0.5377   -0.8833    3.6614 C   0  0  0  0  0  4           0  0  0
   -1.5932    0.8520    1.7543 C   0  0  0  0  0  4           0  0  0
   -0.0224   -0.8716    2.3622 C   0  0  0  0  0  4           0  0  0
   -3.2102   -0.1636    7.9791 C   0  0  0  0  0  4           0  0  0
   -3.2223   -1.2927    7.1673 C   0  0  0  0  0  4           0  0  0
    1.7712   -2.5125   -0.0484 C   0  0  0  0  0  4           0  0  0
    0.0000    0.0000    0.0000 C   0  0  0  0  0  4           0  0  0
    1.7871    2.5213    0.0137 C   0  0  0  0  0  4           0  0  0
    1.6188    3.0391    1.4377 C   0  0  0  0  0  4           0  0  0
    1.1235    4.4834    1.5260 C   0  0  0  0  0  4           0  0  0
   -0.2337    4.6838    0.8679 C   0  0  0  0  0  4           0  0  0
  1  9  1  0     0  0
  2 25  1  0     0  0
  3  4  2  0     0  0
  3  5  1  0     0  0
  4  6  1  0     0  0
  5 10  1  0     0  0
  6 10  2  0     0  0
  7 11  1  0     0  0
  7 12  1  0     0  0
  7 26  1  0     0  0
  8  9  1  0     0  0
  8 11  2  0     0  0
  9 12  2  0     0  0
 10 13  1  0     0  0
 11 27  1  0     0  0
 12 25  1  0     0  0
 13 14  1  0     0  0
 13 17  2  0     0  0
 14 15  1  0     0  0
 14 18  2  0     0  0
 15 19  2  0     0  0
 15 20  1  0     0  0
 16 21  2  0     0  0
 16 22  1  0     0  0
 16 26  1  0     0  0
 17 23  1  0     0  0
 18 24  1  0     0  0
 19 21  1  0     0  0
 20 22  2  0     0  0
 23 24  2  0     0  0
 27 28  1  0     0  0
 28 29  1  0     0  0
 29 30  1  0     0  0
M  END
> <standard_type>
pIC50

> <# Confs.>
25

> <canonical_smiles>
ClC(N=C1CCCC)=C(CO)N1CC2=CC=C(C3=CC=CC=C3C4=NN=NN4)C=C2

> <standard_relation>
=

> <Publication_ID>
nan

> <predicted_activity_value>
7.853871964321762

> <actual_activity_value>
7.721246399047171

> <Compound>
2

> <standard_units>
nM

> hash
1860001942647851610

$$$$
2_
XXILIB    08252103513D 0   0.00000     0.00000

 30 33  0     1  0            999 V2000
    5.0018   -1.5001   -0.0754 Cl  0  0  0  0  0  1           0  0  0
    1.6088   -2.9014   -1.4055 O   0  0  0  0  0  2           0  0  0
   -0.0511    3.8132    5.0461 N   0  0  0  0  0  3           0  0  0
   -1.2215    4.4117    5.2204 N   0  0  0  0  0  3           0  0  0
   -0.2591    2.5359    5.3926 N   0  0  0  0  0  3           0  0  0
   -2.1686    3.5239    5.6752 N   0  0  0  0  0  3           0  0  0
    1.4523    0.0000    0.0000 N   0  0  0  0  0  3           0  0  0
    3.5402    0.7587   -0.0177 N   0  0  0  0  0  3           0  0  0
    3.5479   -0.6111   -0.0382 C   0  0  0  0  0  4           0  0  0
   -1.5601    2.3584    5.7778 C   0  0  0  0  0  4           0  0  0
    2.2705    1.1132    0.0000 C   0  0  0  0  0  4           0  0  0
    2.2622   -1.1181   -0.0299 C   0  0  0  0  0  4           0  0  0
   -2.1134    1.0997    6.2146 C   0  0  0  0  0  4           0  0  0
   -2.1258   -0.0409    5.3794 C   0  0  0  0  0  4           0  0  0
   -1.5873   -0.0271    4.0249 C   0  0  0  0  0  4           0  0  0
   -0.5412    0.0000    1.3973 C   0  0  0  0  0  4           0  0  0
   -2.6602    1.0267    7.5064 C   0  0  0  0  0  4           0  0  0
   -2.6868   -1.2318    5.8798 C   0  0  0  0  0  4           0  0  0
   -2.1086    0.8402    3.0535 C   0  0  0  0  0  4           0  0  0
   -0.5377   -0.8833    3.6614 C   0  0  0  0  0  4           0  0  0
   -1.5932    0.8520    1.7543 C   0  0  0  0  0  4           0  0  0
   -0.0224   -0.8716    2.3622 C   0  0  0  0  0  4           0  0  0
   -3.2102   -0.1636    7.9791 C   0  0  0  0  0  4           0  0  0
   -3.2223   -1.2927    7.1673 C   0  0  0  0  0  4           0  0  0
    1.7712   -2.5125   -0.0484 C   0  0  0  0  0  4           0  0  0
    0.0000    0.0000    0.0000 C   0  0  0  0  0  4           0  0  0
    1.7871    2.5213    0.0137 C   0  0  0  0  0  4           0  0  0
    2.5640    3.3678    1.0157 C   0  0  0  0  0  4           0  0  0
    2.1181    4.8292    1.0819 C   0  0  0  0  0  4           0  0  0
    2.9134    5.6445    2.0907 C   0  0  0  0  0  4           0  0  0
  1  9  1  0     0  0
  2 25  1  0     0  0
  3  4  2  0     0  0
  3  5  1  0     0  0
  4  6  1  0     0  0
  5 10  1  0     0  0
  6 10  2  0     0  0
  7 11  1  0     0  0
  7 12  1  0     0  0
  7 26  1  0     0  0
  8  9  1  0     0  0
  8 11  2  0     0  0
  9 12  2  0     0  0
 10 13  1  0     0  0
 11 27  1  0     0  0
 12 25  1  0     0  0
 13 14  1  0     0  0
 13 17  2  0     0  0
 14 15  1  0     0  0
 14 18  2  0     0  0
 15 19  2  0     0  0
 15 20  1  0     0  0
 16 21  2  0     0  0
 16 22  1  0     0  0
 16 26  1  0     0  0
 17 23  1  0     0  0
 18 24  1  0     0  0
 19 21  1  0     0  0
 20 22  2  0     0  0
 23 24  2  0     0  0
 27 28  1  0     0  0
 28 29  1  0     0  0
 29 30  1  0     0  0
M  END
> <standard_type>
pIC50

> <# Confs.>
25

> <canonical_smiles>
ClC(N=C1CCCC)=C(CO)N1CC2=CC=C(C3=CC=CC=C3C4=NN=NN4)C=C2

> <standard_relation>
=

> <Publication_ID>
nan

> <predicted_activity_value>
7.853871964321762

> <actual_activity_value>
7.721246399047171

> <Compound>
2

> <standard_units>
nM

> hash
1860001942647851610

$$$$
2_
XXILIB    08252103513D 0   0.00000     0.00000

 30 33  0     1  0            999 V2000
    5.0018   -1.5001   -0.0754 Cl  0  0  0  0  0  1           0  0  0
    1.6088   -2.9014   -1.4055 O   0  0  0  0  0  2           0  0  0
   -5.3152   -1.7373    2.8882 N   0  0  0  0  0  3           0  0  0
   -6.0743   -0.7057    3.2316 N   0  0  0  0  0  3           0  0  0
   -4.2849   -1.7108    3.7441 N   0  0  0  0  0  3           0  0  0
   -5.5326   -0.0256    4.2976 N   0  0  0  0  0  3           0  0  0
    1.4523   -0.0000   -0.0000 N   0  0  0  0  0  3           0  0  0
    3.5402    0.7587   -0.0177 N   0  0  0  0  0  3           0  0  0
    3.5479   -0.6111   -0.0382 C   0  0  0  0  0  4           0  0  0
   -4.4194   -0.6599    4.6103 C   0  0  0  0  0  4           0  0  0
    2.2705    1.1132    0.0000 C   0  0  0  0  0  4           0  0  0
    2.2622   -1.1181   -0.0299 C   0  0  0  0  0  4           0  0  0
   -3.4783   -0.3448    5.6572 C   0  0  0  0  0  4           0  0  0
   -2.1258   -0.0409    5.3794 C   0  0  0  0  0  4           0  0  0
   -1.5873   -0.0271    4.0249 C   0  0  0  0  0  4           0  0  0
   -0.5412    0.0000    1.3973 C   0  0  0  0  0  4           0  0  0
   -3.9341   -0.3551    6.9858 C   0  0  0  0  0  4           0  0  0
   -1.2698    0.2534    6.4583 C   0  0  0  0  0  4           0  0  0
   -2.1086    0.8402    3.0535 C   0  0  0  0  0  4           0  0  0
   -0.5377   -0.8833    3.6614 C   0  0  0  0  0  4           0  0  0
   -1.5932    0.8520    1.7543 C   0  0  0  0  0  4           0  0  0
   -0.0224   -0.8716    2.3622 C   0  0  0  0  0  4           0  0  0
   -3.0675   -0.0605    8.0369 C   0  0  0  0  0  4           0  0  0
   -1.7365    0.2450    7.7737 C   0  0  0  0  0  4           0  0  0
    1.7712   -2.5125   -0.0484 C   0  0  0  0  0  4           0  0  0
    0.0000    0.0000    0.0000 C   0  0  0  0  0  4           0  0  0
    1.7871    2.5213    0.0137 C   0  0  0  0  0  4           0  0  0
    1.5933    3.0579   -1.4000 C   0  0  0  0  0  4           0  0  0
    1.0965    4.5032   -1.4603 C   0  0  0  0  0  4           0  0  0
    0.9141    5.0064   -2.8845 C   0  0  0  0  0  4           0  0  0
  1  9  1  0     0  0
  2 25  1  0     0  0
  3  4  2  0     0  0
  3  5  1  0     0  0
  4  6  1  0     0  0
  5 10  1  0     0  0
  6 10  2  0     0  0
  7 11  1  0     0  0
  7 12  1  0     0  0
  7 26  1  0     0  0
  8  9  1  0     0  0
  8 11  2  0     0  0
  9 12  2  0     0  0
 10 13  1  0     0  0
 11 27  1  0     0  0
 12 25  1  0     0  0
 13 14  1  0     0  0
 13 17  2  0     0  0
 14 15  1  0     0  0
 14 18  2  0     0  0
 15 19  2  0     0  0
 15 20  1  0     0  0
 16 21  2  0     0  0
 16 22  1  0     0  0
 16 26  1  0     0  0
 17 23  1  0     0  0
 18 24  1  0     0  0
 19 21  1  0     0  0
 20 22  2  0     0  0
 23 24  2  0     0  0
 27 28  1  0     0  0
 28 29  1  0     0  0
 29 30  1  0     0  0
M  END
> <standard_type>
pIC50

> <# Confs.>
25

> <canonical_smiles>
ClC(N=C1CCCC)=C(CO)N1CC2=CC=C(C3=CC=CC=C3C4=NN=NN4)C=C2

> <standard_relation>
=

> <Publication_ID>
nan

> <predicted_activity_value>
7.853871964321762

> <actual_activity_value>
7.721246399047171

> <Compound>
2

> <standard_units>
nM

> hash
1860001942647851610

$$$$
2_
XXILIB    08252103513D 0   0.00000     0.00000

 30 33  0     1  0            999 V2000
    5.0018   -1.5001   -0.0754 Cl  0  0  0  0  0  1           0  0  0
    1.6088   -2.9014   -1.4055 O   0  0  0  0  0  2           0  0  0
   -0.0511    3.8132    5.0461 N   0  0  0  0  0  3           0  0  0
   -1.2215    4.4117    5.2204 N   0  0  0  0  0  3           0  0  0
   -0.2591    2.5359    5.3926 N   0  0  0  0  0  3           0  0  0
   -2.1686    3.5239    5.6752 N   0  0  0  0  0  3           0  0  0
    1.4523   -0.0000   -0.0000 N   0  0  0  0  0  3           0  0  0
    3.5402    0.7587   -0.0177 N   0  0  0  0  0  3           0  0  0
    3.5479   -0.6111   -0.0382 C   0  0  0  0  0  4           0  0  0
   -1.5601    2.3584    5.7778 C   0  0  0  0  0  4           0  0  0
    2.2705    1.1132    0.0000 C   0  0  0  0  0  4           0  0  0
    2.2622   -1.1181   -0.0299 C   0  0  0  0  0  4           0  0  0
   -2.1134    1.0997    6.2146 C   0  0  0  0  0  4           0  0  0
   -2.1258   -0.0409    5.3794 C   0  0  0  0  0  4           0  0  0
   -1.5873   -0.0271    4.0249 C   0  0  0  0  0  4           0  0  0
   -0.5412    0.0000    1.3973 C   0  0  0  0  0  4           0  0  0
   -2.6602    1.0267    7.5064 C   0  0  0  0  0  4           0  0  0
   -2.6868   -1.2318    5.8798 C   0  0  0  0  0  4           0  0  0
   -2.1086    0.8402    3.0535 C   0  0  0  0  0  4           0  0  0
   -0.5377   -0.8833    3.6614 C   0  0  0  0  0  4           0  0  0
   -1.5932    0.8520    1.7543 C   0  0  0  0  0  4           0  0  0
   -0.0224   -0.8716    2.3622 C   0  0  0  0  0  4           0  0  0
   -3.2102   -0.1636    7.9791 C   0  0  0  0  0  4           0  0  0
   -3.2223   -1.2927    7.1673 C   0  0  0  0  0  4           0  0  0
    1.7712   -2.5125   -0.0484 C   0  0  0  0  0  4           0  0  0
    0.0000    0.0000    0.0000 C   0  0  0  0  0  4           0  0  0
    1.7871    2.5213    0.0137 C   0  0  0  0  0  4           0  0  0
    1.5933    3.0579   -1.4000 C   0  0  0  0  0  4           0  0  0
    2.8642    3.0590   -2.2508 C   0  0  0  0  0  4           0  0  0
    2.6353    3.6002   -3.6542 C   0  0  0  0  0  4           0  0  0
  1  9  1  0     0  0
  2 25  1  0     0  0
  3  4  2  0     0  0
  3  5  1  0     0  0
  4  6  1  0     0  0
  5 10  1  0     0  0
  6 10  2  0     0  0
  7 11  1  0     0  0
  7 12  1  0     0  0
  7 26  1  0     0  0
  8  9  1  0     0  0
  8 11  2  0     0  0
  9 12  2  0     0  0
 10 13  1  0     0  0
 11 27  1  0     0  0
 12 25  1  0     0  0
 13 14  1  0     0  0
 13 17  2  0     0  0
 14 15  1  0     0  0
 14 18  2  0     0  0
 15 19  2  0     0  0
 15 20  1  0     0  0
 16 21  2  0     0  0
 16 22  1  0     0  0
 16 26  1  0     0  0
 17 23  1  0     0  0
 18 24  1  0     0  0
 19 21  1  0     0  0
 20 22  2  0     0  0
 23 24  2  0     0  0
 27 28  1  0     0  0
 28 29  1  0     0  0
 29 30  1  0     0  0
M  END
> <standard_type>
pIC50

> <# Confs.>
25

> <canonical_smiles>
ClC(N=C1CCCC)=C(CO)N1CC2=CC=C(C3=CC=CC=C3C4=NN=NN4)C=C2

> <standard_relation>
=

> <Publication_ID>
nan

> <predicted_activity_value>
7.853871964321762

> <actual_activity_value>
7.721246399047171

> <Compound>
2

> <standard_units>
nM

> hash
1860001942647851610

$$$$
2_
XXILIB    08252103513D 0   0.00000     0.00000

 30 33  0     1  0            999 V2000
    5.0018   -1.5001   -0.0754 Cl  0  0  0  0  0  1           0  0  0
    1.6088   -2.9014   -1.4055 O   0  0  0  0  0  2           0  0  0
   -5.3152   -1.7373    2.8882 N   0  0  0  0  0  3           0  0  0
   -6.0743   -0.7057    3.2316 N   0  0  0  0  0  3           0  0  0
   -4.2849   -1.7108    3.7441 N   0  0  0  0  0  3           0  0  0
   -5.5326   -0.0256    4.2976 N   0  0  0  0  0  3           0  0  0
    1.4523   -0.0000   -0.0000 N   0  0  0  0  0  3           0  0  0
    3.5402    0.7587   -0.0177 N   0  0  0  0  0  3           0  0  0
    3.5479   -0.6111   -0.0382 C   0  0  0  0  0  4           0  0  0
   -4.4194   -0.6599    4.6103 C   0  0  0  0  0  4           0  0  0
    2.2705    1.1132    0.0000 C   0  0  0  0  0  4           0  0  0
    2.2622   -1.1181   -0.0299 C   0  0  0  0  0  4           0  0  0
   -3.4783   -0.3448    5.6572 C   0  0  0  0  0  4           0  0  0
   -2.1258   -0.0409    5.3794 C   0  0  0  0  0  4           0  0  0
   -1.5873   -0.0271    4.0249 C   0  0  0  0  0  4           0  0  0
   -0.5412    0.0000    1.3973 C   0  0  0  0  0  4           0  0  0
   -3.9341   -0.3551    6.9858 C   0  0  0  0  0  4           0  0  0
   -1.2698    0.2534    6.4583 C   0  0  0  0  0  4           0  0  0
   -2.1086    0.8402    3.0535 C   0  0  0  0  0  4           0  0  0
   -0.5377   -0.8833    3.6614 C   0  0  0  0  0  4           0  0  0
   -1.5932    0.8520    1.7543 C   0  0  0  0  0  4           0  0  0
   -0.0224   -0.8716    2.3622 C   0  0  0  0  0  4           0  0  0
   -3.0675   -0.0605    8.0369 C   0  0  0  0  0  4           0  0  0
   -1.7365    0.2450    7.7737 C   0  0  0  0  0  4           0  0  0
    1.7712   -2.5125   -0.0484 C   0  0  0  0  0  4           0  0  0
    0.0000    0.0000    0.0000 C   0  0  0  0  0  4           0  0  0
    1.7871    2.5213    0.0137 C   0  0  0  0  0  4           0  0  0
    1.6188    3.0391    1.4377 C   0  0  0  0  0  4           0  0  0
    1.1235    4.4834    1.5260 C   0  0  0  0  0  4           0  0  0
    0.9668    4.9677    2.9598 C   0  0  0  0  0  4           0  0  0
  1  9  1  0     0  0
  2 25  1  0     0  0
  3  4  2  0     0  0
  3  5  1  0     0  0
  4  6  1  0     0  0
  5 10  1  0     0  0
  6 10  2  0     0  0
  7 11  1  0     0  0
  7 12  1  0     0  0
  7 26  1  0     0  0
  8  9  1  0     0  0
  8 11  2  0     0  0
  9 12  2  0     0  0
 10 13  1  0     0  0
 11 27  1  0     0  0
 12 25  1  0     0  0
 13 14  1  0     0  0
 13 17  2  0     0  0
 14 15  1  0     0  0
 14 18  2  0     0  0
 15 19  2  0     0  0
 15 20  1  0     0  0
 16 21  2  0     0  0
 16 22  1  0     0  0
 16 26  1  0     0  0
 17 23  1  0     0  0
 18 24  1  0     0  0
 19 21  1  0     0  0
 20 22  2  0     0  0
 23 24  2  0     0  0
 27 28  1  0     0  0
 28 29  1  0     0  0
 29 30  1  0     0  0
M  END
> <standard_type>
pIC50

> <# Confs.>
25

> <canonical_smiles>
ClC(N=C1CCCC)=C(CO)N1CC2=CC=C(C3=CC=CC=C3C4=NN=NN4)C=C2

> <standard_relation>
=

> <Publication_ID>
nan

> <predicted_activity_value>
7.853871964321762

> <actual_activity_value>
7.721246399047171

> <Compound>
2

> <standard_units>
nM

> hash
1860001942647851610

$$$$
2_
XXILIB    08252103513D 0   0.00000     0.00000

 30 33  0     1  0            999 V2000
    5.0018   -1.5001   -0.0754 Cl  0  0  0  0  0  1           0  0  0
    0.7122   -2.5912   -0.9927 O   0  0  0  0  0  2           0  0  0
    2.0595   -1.5386    5.7448 N   0  0  0  0  0  3           0  0  0
    1.5495   -2.6808    6.1847 N   0  0  0  0  0  3           0  0  0
    1.0508   -0.6594    5.8109 N   0  0  0  0  0  3           0  0  0
    0.2258   -2.5322    6.5281 N   0  0  0  0  0  3           0  0  0
    1.4523   -0.0000   -0.0000 N   0  0  0  0  0  3           0  0  0
    3.5402    0.7587   -0.0177 N   0  0  0  0  0  3           0  0  0
    3.5479   -0.6111   -0.0382 C   0  0  0  0  0  4           0  0  0
   -0.0750   -1.2699    6.2931 C   0  0  0  0  0  4           0  0  0
    2.2705    1.1132   -0.0000 C   0  0  0  0  0  4           0  0  0
    2.2622   -1.1181   -0.0299 C   0  0  0  0  0  4           0  0  0
   -1.3406   -0.6047    6.4852 C   0  0  0  0  0  4           0  0  0
   -2.0364    0.0012    5.4141 C   0  0  0  0  0  4           0  0  0
   -1.5275    0.0005    4.0481 C   0  0  0  0  0  4           0  0  0
   -0.5412    0.0000    1.3973 C   0  0  0  0  0  4           0  0  0
   -1.8769   -0.5587    7.7827 C   0  0  0  0  0  4           0  0  0
   -3.2654    0.6330    5.6853 C   0  0  0  0  0  4           0  0  0
   -1.2884   -1.2046    3.3712 C   0  0  0  0  0  4           0  0  0
   -1.2624    1.2052    3.3807 C   0  0  0  0  0  4           0  0  0
   -0.7987   -1.2048    2.0620 C   0  0  0  0  0  4           0  0  0
   -0.7726    1.2049    2.0716 C   0  0  0  0  0  4           0  0  0
   -3.0953    0.0729    8.0261 C   0  0  0  0  0  4           0  0  0
   -3.7901    0.6672    6.9782 C   0  0  0  0  0  4           0  0  0
    1.7712   -2.5125   -0.0484 C   0  0  0  0  0  4           0  0  0
    0.0000    0.0000    0.0000 C   0  0  0  0  0  4           0  0  0
    1.7871    2.5213    0.0137 C   0  0  0  0  0  4           0  0  0
    2.5459    3.3811   -0.9909 C   0  0  0  0  0  4           0  0  0
    2.4226    2.9092   -2.4404 C   0  0  0  0  0  4           0  0  0
    3.1912    3.7887   -3.4155 C   0  0  0  0  0  4           0  0  0
  1  9  1  0     0  0
  2 25  1  0     0  0
  3  4  2  0     0  0
  3  5  1  0     0  0
  4  6  1  0     0  0
  5 10  1  0     0  0
  6 10  2  0     0  0
  7 11  1  0     0  0
  7 12  1  0     0  0
  7 26  1  0     0  0
  8  9  1  0     0  0
  8 11  2  0     0  0
  9 12  2  0     0  0
 10 13  1  0     0  0
 11 27  1  0     0  0
 12 25  1  0     0  0
 13 14  1  0     0  0
 13 17  2  0     0  0
 14 15  1  0     0  0
 14 18  2  0     0  0
 15 19  2  0     0  0
 15 20  1  0     0  0
 16 21  2  0     0  0
 16 22  1  0     0  0
 16 26  1  0     0  0
 17 23  1  0     0  0
 18 24  1  0     0  0
 19 21  1  0     0  0
 20 22  2  0     0  0
 23 24  2  0     0  0
 27 28  1  0     0  0
 28 29  1  0     0  0
 29 30  1  0     0  0
M  END
> <standard_type>
pIC50

> <# Confs.>
25

> <canonical_smiles>
ClC(N=C1CCCC)=C(CO)N1CC2=CC=C(C3=CC=CC=C3C4=NN=NN4)C=C2

> <standard_relation>
=

> <Publication_ID>
nan

> <predicted_activity_value>
7.853871964321762

> <actual_activity_value>
7.721246399047171

> <Compound>
2

> <standard_units>
nM

> hash
1860001942647851610

$$$$
2_
XXILIB    08252103513D 0   0.00000     0.00000

 30 33  0     1  0            999 V2000
    5.0018   -1.5001   -0.0754 Cl  0  0  0  0  0  1           0  0  0
    0.7122   -2.5912   -0.9927 O   0  0  0  0  0  2           0  0  0
    2.0595   -1.5386    5.7448 N   0  0  0  0  0  3           0  0  0
    1.5495   -2.6808    6.1847 N   0  0  0  0  0  3           0  0  0
    1.0508   -0.6594    5.8109 N   0  0  0  0  0  3           0  0  0
    0.2258   -2.5322    6.5281 N   0  0  0  0  0  3           0  0  0
    1.4523   -0.0000   -0.0000 N   0  0  0  0  0  3           0  0  0
    3.5402    0.7587   -0.0177 N   0  0  0  0  0  3           0  0  0
    3.5479   -0.6111   -0.0382 C   0  0  0  0  0  4           0  0  0
   -0.0750   -1.2699    6.2931 C   0  0  0  0  0  4           0  0  0
    2.2705    1.1132   -0.0000 C   0  0  0  0  0  4           0  0  0
    2.2622   -1.1181   -0.0299 C   0  0  0  0  0  4           0  0  0
   -1.3406   -0.6047    6.4852 C   0  0  0  0  0  4           0  0  0
   -2.0364    0.0012    5.4141 C   0  0  0  0  0  4           0  0  0
   -1.5275    0.0005    4.0481 C   0  0  0  0  0  4           0  0  0
   -0.5412    0.0000    1.3973 C   0  0  0  0  0  4           0  0  0
   -1.8769   -0.5587    7.7827 C   0  0  0  0  0  4           0  0  0
   -3.2654    0.6330    5.6853 C   0  0  0  0  0  4           0  0  0
   -1.2884   -1.2046    3.3712 C   0  0  0  0  0  4           0  0  0
   -1.2624    1.2052    3.3807 C   0  0  0  0  0  4           0  0  0
   -0.7987   -1.2048    2.0620 C   0  0  0  0  0  4           0  0  0
   -0.7726    1.2049    2.0716 C   0  0  0  0  0  4           0  0  0
   -3.0953    0.0729    8.0261 C   0  0  0  0  0  4           0  0  0
   -3.7901    0.6672    6.9782 C   0  0  0  0  0  4           0  0  0
    1.7712   -2.5125   -0.0484 C   0  0  0  0  0  4           0  0  0
    0.0000    0.0000    0.0000 C   0  0  0  0  0  4           0  0  0
    1.7871    2.5213    0.0137 C   0  0  0  0  0  4           0  0  0
    2.5459    3.3811   -0.9909 C   0  0  0  0  0  4           0  0  0
    2.0991    4.8432   -1.0297 C   0  0  0  0  0  4           0  0  0
    2.8762    5.6718   -2.0418 C   0  0  0  0  0  4           0  0  0
  1  9  1  0     0  0
  2 25  1  0     0  0
  3  4  2  0     0  0
  3  5  1  0     0  0
  4  6  1  0     0  0
  5 10  1  0     0  0
  6 10  2  0     0  0
  7 11  1  0     0  0
  7 12  1  0     0  0
  7 26  1  0     0  0
  8  9  1  0     0  0
  8 11  2  0     0  0
  9 12  2  0     0  0
 10 13  1  0     0  0
 11 27  1  0     0  0
 12 25  1  0     0  0
 13 14  1  0     0  0
 13 17  2  0     0  0
 14 15  1  0     0  0
 14 18  2  0     0  0
 15 19  2  0     0  0
 15 20  1  0     0  0
 16 21  2  0     0  0
 16 22  1  0     0  0
 16 26  1  0     0  0
 17 23  1  0     0  0
 18 24  1  0     0  0
 19 21  1  0     0  0
 20 22  2  0     0  0
 23 24  2  0     0  0
 27 28  1  0     0  0
 28 29  1  0     0  0
 29 30  1  0     0  0
M  END
> <standard_type>
pIC50

> <# Confs.>
25

> <canonical_smiles>
ClC(N=C1CCCC)=C(CO)N1CC2=CC=C(C3=CC=CC=C3C4=NN=NN4)C=C2

> <standard_relation>
=

> <Publication_ID>
nan

> <predicted_activity_value>
7.853871964321762

> <actual_activity_value>
7.721246399047171

> <Compound>
2

> <standard_units>
nM

> hash
1860001942647851610

$$$$
2_
XXILIB    08252103513D 0   0.00000     0.00000

 30 33  0     1  0            999 V2000
    5.0018    1.5001    0.0754 Cl  0  0  0  0  0  1           0  0  0
    1.6088    2.9014    1.4055 O   0  0  0  0  0  2           0  0  0
   -5.5648    0.7490    2.9119 N   0  0  0  0  0  3           0  0  0
   -6.0691   -0.3954    3.3528 N   0  0  0  0  0  3           0  0  0
   -4.5396    1.0158    3.7321 N   0  0  0  0  0  3           0  0  0
   -5.3721   -0.8551    4.4460 N   0  0  0  0  0  3           0  0  0
    1.4523    0.0000    0.0000 N   0  0  0  0  0  3           0  0  0
    3.5402   -0.7587    0.0177 N   0  0  0  0  0  3           0  0  0
    3.5479    0.6111    0.0382 C   0  0  0  0  0  4           0  0  0
   -4.4209    0.0297    4.6735 C   0  0  0  0  0  4           0  0  0
    2.2705   -1.1132    0.0000 C   0  0  0  0  0  4           0  0  0
    2.2622    1.1181    0.0299 C   0  0  0  0  0  4           0  0  0
   -3.4185    0.0136    5.7109 C   0  0  0  0  0  4           0  0  0
   -2.0364    0.0012    5.4141 C   0  0  0  0  0  4           0  0  0
   -1.5275    0.0005    4.0481 C   0  0  0  0  0  4           0  0  0
   -0.5412   -0.0000    1.3973 C   0  0  0  0  0  4           0  0  0
   -3.8468   -0.0002    7.0486 C   0  0  0  0  0  4           0  0  0
   -1.1213   -0.0169    6.4844 C   0  0  0  0  0  4           0  0  0
   -1.2884   -1.2046    3.3712 C   0  0  0  0  0  4           0  0  0
   -1.2624    1.2052    3.3807 C   0  0  0  0  0  4           0  0  0
   -0.7987   -1.2048    2.0620 C   0  0  0  0  0  4           0  0  0
   -0.7726    1.2049    2.0716 C   0  0  0  0  0  4           0  0  0
   -2.9216   -0.0183    8.0909 C   0  0  0  0  0  4           0  0  0
   -1.5597   -0.0252    7.8095 C   0  0  0  0  0  4           0  0  0
    1.7712    2.5125    0.0484 C   0  0  0  0  0  4           0  0  0
    0.0000    0.0000   -0.0000 C   0  0  0  0  0  4           0  0  0
    1.7871   -2.5213   -0.0137 C   0  0  0  0  0  4           0  0  0
    2.5640   -3.3678   -1.0157 C   0  0  0  0  0  4           0  0  0
    2.1181   -4.8292   -1.0819 C   0  0  0  0  0  4           0  0  0
    2.9134   -5.6445   -2.0907 C   0  0  0  0  0  4           0  0  0
  1  9  1  0     0  0
  2 25  1  0     0  0
  3  4  2  0     0  0
  3  5  1  0     0  0
  4  6  1  0     0  0
  5 10  1  0     0  0
  6 10  2  0     0  0
  7 11  1  0     0  0
  7 12  1  0     0  0
  7 26  1  0     0  0
  8  9  1  0     0  0
  8 11  2  0     0  0
  9 12  2  0     0  0
 10 13  1  0     0  0
 11 27  1  0     0  0
 12 25  1  0     0  0
 13 14  1  0     0  0
 13 17  2  0     0  0
 14 15  1  0     0  0
 14 18  2  0     0  0
 15 19  2  0     0  0
 15 20  1  0     0  0
 16 21  2  0     0  0
 16 22  1  0     0  0
 16 26  1  0     0  0
 17 23  1  0     0  0
 18 24  1  0     0  0
 19 21  1  0     0  0
 20 22  2  0     0  0
 23 24  2  0     0  0
 27 28  1  0     0  0
 28 29  1  0     0  0
 29 30  1  0     0  0
M  END
> <standard_type>
pIC50

> <# Confs.>
25

> <canonical_smiles>
ClC(N=C1CCCC)=C(CO)N1CC2=CC=C(C3=CC=CC=C3C4=NN=NN4)C=C2

> <standard_relation>
=

> <Publication_ID>
nan

> <predicted_activity_value>
7.853871964321762

> <actual_activity_value>
7.721246399047171

> <Compound>
2

> <standard_units>
nM

> hash
1860001942647851610

$$$$
2_
XXILIB    08252103513D 0   0.00000     0.00000

 30 33  0     1  0            999 V2000
    5.0018    1.5001    0.0754 Cl  0  0  0  0  0  1           0  0  0
    1.6088    2.9014    1.4055 O   0  0  0  0  0  2           0  0  0
    2.0595   -1.5386    5.7448 N   0  0  0  0  0  3           0  0  0
    1.5495   -2.6808    6.1847 N   0  0  0  0  0  3           0  0  0
    1.0508   -0.6594    5.8109 N   0  0  0  0  0  3           0  0  0
    0.2258   -2.5322    6.5281 N   0  0  0  0  0  3           0  0  0
    1.4523    0.0000    0.0000 N   0  0  0  0  0  3           0  0  0
    3.5402   -0.7587    0.0177 N   0  0  0  0  0  3           0  0  0
    3.5479    0.6111    0.0382 C   0  0  0  0  0  4           0  0  0
   -0.0750   -1.2699    6.2931 C   0  0  0  0  0  4           0  0  0
    2.2705   -1.1132    0.0000 C   0  0  0  0  0  4           0  0  0
    2.2622    1.1181    0.0299 C   0  0  0  0  0  4           0  0  0
   -1.3406   -0.6047    6.4852 C   0  0  0  0  0  4           0  0  0
   -2.0364    0.0012    5.4141 C   0  0  0  0  0  4           0  0  0
   -1.5275    0.0005    4.0481 C   0  0  0  0  0  4           0  0  0
   -0.5412    0.0000    1.3973 C   0  0  0  0  0  4           0  0  0
   -1.8769   -0.5587    7.7827 C   0  0  0  0  0  4           0  0  0
   -3.2654    0.6330    5.6853 C   0  0  0  0  0  4           0  0  0
   -1.2884   -1.2046    3.3712 C   0  0  0  0  0  4           0  0  0
   -1.2624    1.2052    3.3807 C   0  0  0  0  0  4           0  0  0
   -0.7987   -1.2048    2.0620 C   0  0  0  0  0  4           0  0  0
   -0.7726    1.2049    2.0716 C   0  0  0  0  0  4           0  0  0
   -3.0953    0.0729    8.0261 C   0  0  0  0  0  4           0  0  0
   -3.7901    0.6672    6.9782 C   0  0  0  0  0  4           0  0  0
    1.7712    2.5125    0.0484 C   0  0  0  0  0  4           0  0  0
    0.0000    0.0000    0.0000 C   0  0  0  0  0  4           0  0  0
    1.7871   -2.5213   -0.0137 C   0  0  0  0  0  4           0  0  0
    2.5459   -3.3811    0.9909 C   0  0  0  0  0  4           0  0  0
    2.0991   -4.8432    1.0297 C   0  0  0  0  0  4           0  0  0
    2.8762   -5.6718    2.0418 C   0  0  0  0  0  4           0  0  0
  1  9  1  0     0  0
  2 25  1  0     0  0
  3  4  2  0     0  0
  3  5  1  0     0  0
  4  6  1  0     0  0
  5 10  1  0     0  0
  6 10  2  0     0  0
  7 11  1  0     0  0
  7 12  1  0     0  0
  7 26  1  0     0  0
  8  9  1  0     0  0
  8 11  2  0     0  0
  9 12  2  0     0  0
 10 13  1  0     0  0
 11 27  1  0     0  0
 12 25  1  0     0  0
 13 14  1  0     0  0
 13 17  2  0     0  0
 14 15  1  0     0  0
 14 18  2  0     0  0
 15 19  2  0     0  0
 15 20  1  0     0  0
 16 21  2  0     0  0
 16 22  1  0     0  0
 16 26  1  0     0  0
 17 23  1  0     0  0
 18 24  1  0     0  0
 19 21  1  0     0  0
 20 22  2  0     0  0
 23 24  2  0     0  0
 27 28  1  0     0  0
 28 29  1  0     0  0
 29 30  1  0     0  0
M  END
> <standard_type>
pIC50

> <# Confs.>
25

> <canonical_smiles>
ClC(N=C1CCCC)=C(CO)N1CC2=CC=C(C3=CC=CC=C3C4=NN=NN4)C=C2

> <standard_relation>
=

> <Publication_ID>
nan

> <predicted_activity_value>
7.853871964321762

> <actual_activity_value>
7.721246399047171

> <Compound>
2

> <standard_units>
nM

> hash
1860001942647851610

$$$$
2_
XXILIB    08252103513D 0   0.00000     0.00000

 30 33  0     1  0            999 V2000
    5.0018   -1.5001   -0.0754 Cl  0  0  0  0  0  1           0  0  0
    1.6088   -2.9014   -1.4055 O   0  0  0  0  0  2           0  0  0
   -5.3152   -1.7373    2.8882 N   0  0  0  0  0  3           0  0  0
   -6.0743   -0.7057    3.2316 N   0  0  0  0  0  3           0  0  0
   -4.2849   -1.7108    3.7441 N   0  0  0  0  0  3           0  0  0
   -5.5326   -0.0256    4.2976 N   0  0  0  0  0  3           0  0  0
    1.4523   -0.0000   -0.0000 N   0  0  0  0  0  3           0  0  0
    3.5402    0.7587   -0.0177 N   0  0  0  0  0  3           0  0  0
    3.5479   -0.6111   -0.0382 C   0  0  0  0  0  4           0  0  0
   -4.4194   -0.6599    4.6103 C   0  0  0  0  0  4           0  0  0
    2.2705    1.1132    0.0000 C   0  0  0  0  0  4           0  0  0
    2.2622   -1.1181   -0.0299 C   0  0  0  0  0  4           0  0  0
   -3.4783   -0.3448    5.6572 C   0  0  0  0  0  4           0  0  0
   -2.1258   -0.0409    5.3794 C   0  0  0  0  0  4           0  0  0
   -1.5873   -0.0271    4.0249 C   0  0  0  0  0  4           0  0  0
   -0.5412    0.0000    1.3973 C   0  0  0  0  0  4           0  0  0
   -3.9341   -0.3551    6.9858 C   0  0  0  0  0  4           0  0  0
   -1.2698    0.2534    6.4583 C   0  0  0  0  0  4           0  0  0
   -2.1086    0.8402    3.0535 C   0  0  0  0  0  4           0  0  0
   -0.5377   -0.8833    3.6614 C   0  0  0  0  0  4           0  0  0
   -1.5932    0.8520    1.7543 C   0  0  0  0  0  4           0  0  0
   -0.0224   -0.8716    2.3622 C   0  0  0  0  0  4           0  0  0
   -3.0675   -0.0605    8.0369 C   0  0  0  0  0  4           0  0  0
   -1.7365    0.2450    7.7737 C   0  0  0  0  0  4           0  0  0
    1.7712   -2.5125   -0.0484 C   0  0  0  0  0  4           0  0  0
    0.0000    0.0000    0.0000 C   0  0  0  0  0  4           0  0  0
    1.7871    2.5213    0.0137 C   0  0  0  0  0  4           0  0  0
    1.6188    3.0391    1.4377 C   0  0  0  0  0  4           0  0  0
    2.9049    3.0291    2.2653 C   0  0  0  0  0  4           0  0  0
    2.7014    3.5516    3.6797 C   0  0  0  0  0  4           0  0  0
  1  9  1  0     0  0
  2 25  1  0     0  0
  3  4  2  0     0  0
  3  5  1  0     0  0
  4  6  1  0     0  0
  5 10  1  0     0  0
  6 10  2  0     0  0
  7 11  1  0     0  0
  7 12  1  0     0  0
  7 26  1  0     0  0
  8  9  1  0     0  0
  8 11  2  0     0  0
  9 12  2  0     0  0
 10 13  1  0     0  0
 11 27  1  0     0  0
 12 25  1  0     0  0
 13 14  1  0     0  0
 13 17  2  0     0  0
 14 15  1  0     0  0
 14 18  2  0     0  0
 15 19  2  0     0  0
 15 20  1  0     0  0
 16 21  2  0     0  0
 16 22  1  0     0  0
 16 26  1  0     0  0
 17 23  1  0     0  0
 18 24  1  0     0  0
 19 21  1  0     0  0
 20 22  2  0     0  0
 23 24  2  0     0  0
 27 28  1  0     0  0
 28 29  1  0     0  0
 29 30  1  0     0  0
M  END
> <standard_type>
pIC50

> <# Confs.>
25

> <canonical_smiles>
ClC(N=C1CCCC)=C(CO)N1CC2=CC=C(C3=CC=CC=C3C4=NN=NN4)C=C2

> <standard_relation>
=

> <Publication_ID>
nan

> <predicted_activity_value>
7.853871964321762

> <actual_activity_value>
7.721246399047171

> <Compound>
2

> <standard_units>
nM

> hash
1860001942647851610

$$$$
2_
XXILIB    08252103513D 0   0.00000     0.00000

 30 33  0     1  0            999 V2000
    5.0018   -1.5001   -0.0754 Cl  0  0  0  0  0  1           0  0  0
    1.6088   -2.9014   -1.4055 O   0  0  0  0  0  2           0  0  0
   -3.2863    3.9132    3.6741 N   0  0  0  0  0  3           0  0  0
   -2.5390    4.4970    4.6010 N   0  0  0  0  0  3           0  0  0
   -3.4154    2.6433    4.0809 N   0  0  0  0  0  3           0  0  0
   -2.1932    3.6068    5.5911 N   0  0  0  0  0  3           0  0  0
    1.4523   -0.0000   -0.0000 N   0  0  0  0  0  3           0  0  0
    3.5402    0.7587   -0.0177 N   0  0  0  0  0  3           0  0  0
    3.5479   -0.6111   -0.0382 C   0  0  0  0  0  4           0  0  0
   -2.7447    2.4558    5.2590 C   0  0  0  0  0  4           0  0  0
    2.2705    1.1132   -0.0000 C   0  0  0  0  0  4           0  0  0
    2.2622   -1.1181   -0.0299 C   0  0  0  0  0  4           0  0  0
   -2.6808    1.2000    5.9661 C   0  0  0  0  0  4           0  0  0
   -2.1274    0.0392    5.3788 C   0  0  0  0  0  4           0  0  0
   -1.5880    0.0263    4.0246 C   0  0  0  0  0  4           0  0  0
   -0.5412    0.0000    1.3973 C   0  0  0  0  0  4           0  0  0
   -3.1973    1.1452    7.2712 C   0  0  0  0  0  4           0  0  0
   -2.1046   -1.1486    6.1350 C   0  0  0  0  0  4           0  0  0
   -0.5201    0.8633    3.6688 C   0  0  0  0  0  4           0  0  0
   -2.1271   -0.8211    3.0458 C   0  0  0  0  0  4           0  0  0
   -0.0043    0.8520    2.3697 C   0  0  0  0  0  4           0  0  0
   -1.6113   -0.8323    1.7468 C   0  0  0  0  0  4           0  0  0
   -3.1636   -0.0426    7.9997 C   0  0  0  0  0  4           0  0  0
   -2.6164   -1.1886    7.4329 C   0  0  0  0  0  4           0  0  0
    1.7712   -2.5125   -0.0484 C   0  0  0  0  0  4           0  0  0
    0.0000    0.0000   -0.0000 C   0  0  0  0  0  4           0  0  0
    1.7871    2.5213    0.0137 C   0  0  0  0  0  4           0  0  0
    2.5459    3.3811   -0.9909 C   0  0  0  0  0  4           0  0  0
    2.4226    2.9092   -2.4404 C   0  0  0  0  0  4           0  0  0
    3.1912    3.7887   -3.4155 C   0  0  0  0  0  4           0  0  0
  1  9  1  0     0  0
  2 25  1  0     0  0
  3  4  2  0     0  0
  3  5  1  0     0  0
  4  6  1  0     0  0
  5 10  1  0     0  0
  6 10  2  0     0  0
  7 11  1  0     0  0
  7 12  1  0     0  0
  7 26  1  0     0  0
  8  9  1  0     0  0
  8 11  2  0     0  0
  9 12  2  0     0  0
 10 13  1  0     0  0
 11 27  1  0     0  0
 12 25  1  0     0  0
 13 14  1  0     0  0
 13 17  2  0     0  0
 14 15  1  0     0  0
 14 18  2  0     0  0
 15 19  2  0     0  0
 15 20  1  0     0  0
 16 21  2  0     0  0
 16 22  1  0     0  0
 16 26  1  0     0  0
 17 23  1  0     0  0
 18 24  1  0     0  0
 19 21  1  0     0  0
 20 22  2  0     0  0
 23 24  2  0     0  0
 27 28  1  0     0  0
 28 29  1  0     0  0
 29 30  1  0     0  0
M  END
> <standard_type>
pIC50

> <# Confs.>
25

> <canonical_smiles>
ClC(N=C1CCCC)=C(CO)N1CC2=CC=C(C3=CC=CC=C3C4=NN=NN4)C=C2

> <standard_relation>
=

> <Publication_ID>
nan

> <predicted_activity_value>
7.853871964321762

> <actual_activity_value>
7.721246399047171

> <Compound>
2

> <standard_units>
nM

> hash
1860001942647851610

$$$$
2_
XXILIB    08252103513D 0   0.00000     0.00000

 30 33  0     1  0            999 V2000
    5.0018    1.5001    0.0754 Cl  0  0  0  0  0  1           0  0  0
    1.6088    2.9014    1.4055 O   0  0  0  0  0  2           0  0  0
   -5.5648    0.7490    2.9119 N   0  0  0  0  0  3           0  0  0
   -6.0691   -0.3954    3.3528 N   0  0  0  0  0  3           0  0  0
   -4.5396    1.0158    3.7321 N   0  0  0  0  0  3           0  0  0
   -5.3721   -0.8551    4.4460 N   0  0  0  0  0  3           0  0  0
    1.4523    0.0000    0.0000 N   0  0  0  0  0  3           0  0  0
    3.5402   -0.7587    0.0177 N   0  0  0  0  0  3           0  0  0
    3.5479    0.6111    0.0382 C   0  0  0  0  0  4           0  0  0
   -4.4209    0.0297    4.6735 C   0  0  0  0  0  4           0  0  0
    2.2705   -1.1132    0.0000 C   0  0  0  0  0  4           0  0  0
    2.2622    1.1181    0.0299 C   0  0  0  0  0  4           0  0  0
   -3.4185    0.0136    5.7109 C   0  0  0  0  0  4           0  0  0
   -2.0364    0.0012    5.4141 C   0  0  0  0  0  4           0  0  0
   -1.5275    0.0005    4.0481 C   0  0  0  0  0  4           0  0  0
   -0.5412   -0.0000    1.3973 C   0  0  0  0  0  4           0  0  0
   -3.8468   -0.0002    7.0486 C   0  0  0  0  0  4           0  0  0
   -1.1213   -0.0169    6.4844 C   0  0  0  0  0  4           0  0  0
   -1.2884   -1.2046    3.3712 C   0  0  0  0  0  4           0  0  0
   -1.2624    1.2052    3.3807 C   0  0  0  0  0  4           0  0  0
   -0.7987   -1.2048    2.0620 C   0  0  0  0  0  4           0  0  0
   -0.7726    1.2049    2.0716 C   0  0  0  0  0  4           0  0  0
   -2.9216   -0.0183    8.0909 C   0  0  0  0  0  4           0  0  0
   -1.5597   -0.0252    7.8095 C   0  0  0  0  0  4           0  0  0
    1.7712    2.5125    0.0484 C   0  0  0  0  0  4           0  0  0
    0.0000    0.0000   -0.0000 C   0  0  0  0  0  4           0  0  0
    1.7871   -2.5213   -0.0137 C   0  0  0  0  0  4           0  0  0
    2.5640   -3.3678   -1.0157 C   0  0  0  0  0  4           0  0  0
    2.4668   -2.8768   -2.4609 C   0  0  0  0  0  4           0  0  0
    3.2529   -3.7434   -3.4334 C   0  0  0  0  0  4           0  0  0
  1  9  1  0     0  0
  2 25  1  0     0  0
  3  4  2  0     0  0
  3  5  1  0     0  0
  4  6  1  0     0  0
  5 10  1  0     0  0
  6 10  2  0     0  0
  7 11  1  0     0  0
  7 12  1  0     0  0
  7 26  1  0     0  0
  8  9  1  0     0  0
  8 11  2  0     0  0
  9 12  2  0     0  0
 10 13  1  0     0  0
 11 27  1  0     0  0
 12 25  1  0     0  0
 13 14  1  0     0  0
 13 17  2  0     0  0
 14 15  1  0     0  0
 14 18  2  0     0  0
 15 19  2  0     0  0
 15 20  1  0     0  0
 16 21  2  0     0  0
 16 22  1  0     0  0
 16 26  1  0     0  0
 17 23  1  0     0  0
 18 24  1  0     0  0
 19 21  1  0     0  0
 20 22  2  0     0  0
 23 24  2  0     0  0
 27 28  1  0     0  0
 28 29  1  0     0  0
 29 30  1  0     0  0
M  END
> <standard_type>
pIC50

> <# Confs.>
25

> <canonical_smiles>
ClC(N=C1CCCC)=C(CO)N1CC2=CC=C(C3=CC=CC=C3C4=NN=NN4)C=C2

> <standard_relation>
=

> <Publication_ID>
nan

> <predicted_activity_value>
7.853871964321762

> <actual_activity_value>
7.721246399047171

> <Compound>
2

> <standard_units>
nM

> hash
1860001942647851610

$$$$
2_
XXILIB    08252103513D 0   0.00000     0.00000

 30 33  0     1  0            999 V2000
    5.0018   -1.5001   -0.0754 Cl  0  0  0  0  0  1           0  0  0
    0.7122   -2.5912   -0.9927 O   0  0  0  0  0  2           0  0  0
   -5.3910   -1.4412    2.9777 N   0  0  0  0  0  3           0  0  0
   -5.3189   -2.5916    3.6333 N   0  0  0  0  0  3           0  0  0
   -4.6472   -0.5866    3.6928 N   0  0  0  0  0  3           0  0  0
   -4.5362   -2.4722    4.7581 N   0  0  0  0  0  3           0  0  0
    1.4523   -0.0000   -0.0000 N   0  0  0  0  0  3           0  0  0
    3.5402    0.7587   -0.0177 N   0  0  0  0  0  3           0  0  0
    3.5479   -0.6111   -0.0382 C   0  0  0  0  0  4           0  0  0
   -4.1215   -1.2207    4.7857 C   0  0  0  0  0  4           0  0  0
    2.2705    1.1132   -0.0000 C   0  0  0  0  0  4           0  0  0
    2.2622   -1.1181   -0.0299 C   0  0  0  0  0  4           0  0  0
   -3.2747   -0.5838    5.7647 C   0  0  0  0  0  4           0  0  0
   -2.0364    0.0012    5.4141 C   0  0  0  0  0  4           0  0  0
   -1.5275    0.0005    4.0481 C   0  0  0  0  0  4           0  0  0
   -0.5412    0.0000    1.3973 C   0  0  0  0  0  4           0  0  0
   -3.7044   -0.5629    7.1019 C   0  0  0  0  0  4           0  0  0
   -1.2671    0.6012    6.4297 C   0  0  0  0  0  4           0  0  0
   -1.2884   -1.2046    3.3712 C   0  0  0  0  0  4           0  0  0
   -1.2624    1.2052    3.3807 C   0  0  0  0  0  4           0  0  0
   -0.7987   -1.2048    2.0620 C   0  0  0  0  0  4           0  0  0
   -0.7726    1.2049    2.0716 C   0  0  0  0  0  4           0  0  0
   -2.9250    0.0369    8.0896 C   0  0  0  0  0  4           0  0  0
   -1.7078    0.6199    7.7539 C   0  0  0  0  0  4           0  0  0
    1.7712   -2.5125   -0.0484 C   0  0  0  0  0  4           0  0  0
    0.0000   -0.0000    0.0000 C   0  0  0  0  0  4           0  0  0
    1.7871    2.5213    0.0137 C   0  0  0  0  0  4           0  0  0
    2.5459    3.3811   -0.9909 C   0  0  0  0  0  4           0  0  0
    2.4226    2.9092   -2.4404 C   0  0  0  0  0  4           0  0  0
    3.1912    3.7887   -3.4155 C   0  0  0  0  0  4           0  0  0
  1  9  1  0     0  0
  2 25  1  0     0  0
  3  4  2  0     0  0
  3  5  1  0     0  0
  4  6  1  0     0  0
  5 10  1  0     0  0
  6 10  2  0     0  0
  7 11  1  0     0  0
  7 12  1  0     0  0
  7 26  1  0     0  0
  8  9  1  0     0  0
  8 11  2  0     0  0
  9 12  2  0     0  0
 10 13  1  0     0  0
 11 27  1  0     0  0
 12 25  1  0     0  0
 13 14  1  0     0  0
 13 17  2  0     0  0
 14 15  1  0     0  0
 14 18  2  0     0  0
 15 19  2  0     0  0
 15 20  1  0     0  0
 16 21  2  0     0  0
 16 22  1  0     0  0
 16 26  1  0     0  0
 17 23  1  0     0  0
 18 24  1  0     0  0
 19 21  1  0     0  0
 20 22  2  0     0  0
 23 24  2  0     0  0
 27 28  1  0     0  0
 28 29  1  0     0  0
 29 30  1  0     0  0
M  END
> <standard_type>
pIC50

> <# Confs.>
25

> <canonical_smiles>
ClC(N=C1CCCC)=C(CO)N1CC2=CC=C(C3=CC=CC=C3C4=NN=NN4)C=C2

> <standard_relation>
=

> <Publication_ID>
nan

> <predicted_activity_value>
7.853871964321762

> <actual_activity_value>
7.721246399047171

> <Compound>
2

> <standard_units>
nM

> hash
1860001942647851610

$$$$
2_
XXILIB    08252103513D 0   0.00000     0.00000

 30 33  0     1  0            999 V2000
    5.0018   -1.5001   -0.0754 Cl  0  0  0  0  0  1           0  0  0
    1.6088   -2.9014   -1.4055 O   0  0  0  0  0  2           0  0  0
   -3.2863    3.9132    3.6741 N   0  0  0  0  0  3           0  0  0
   -2.5390    4.4970    4.6010 N   0  0  0  0  0  3           0  0  0
   -3.4154    2.6433    4.0809 N   0  0  0  0  0  3           0  0  0
   -2.1932    3.6068    5.5911 N   0  0  0  0  0  3           0  0  0
    1.4523   -0.0000   -0.0000 N   0  0  0  0  0  3           0  0  0
    3.5402    0.7587   -0.0177 N   0  0  0  0  0  3           0  0  0
    3.5479   -0.6111   -0.0382 C   0  0  0  0  0  4           0  0  0
   -2.7447    2.4558    5.2590 C   0  0  0  0  0  4           0  0  0
    2.2705    1.1132   -0.0000 C   0  0  0  0  0  4           0  0  0
    2.2622   -1.1181   -0.0299 C   0  0  0  0  0  4           0  0  0
   -2.6808    1.2000    5.9661 C   0  0  0  0  0  4           0  0  0
   -2.1274    0.0392    5.3788 C   0  0  0  0  0  4           0  0  0
   -1.5880    0.0263    4.0246 C   0  0  0  0  0  4           0  0  0
   -0.5412    0.0000    1.3973 C   0  0  0  0  0  4           0  0  0
   -3.1973    1.1452    7.2712 C   0  0  0  0  0  4           0  0  0
   -2.1046   -1.1486    6.1350 C   0  0  0  0  0  4           0  0  0
   -0.5201    0.8633    3.6688 C   0  0  0  0  0  4           0  0  0
   -2.1271   -0.8211    3.0458 C   0  0  0  0  0  4           0  0  0
   -0.0043    0.8520    2.3697 C   0  0  0  0  0  4           0  0  0
   -1.6113   -0.8323    1.7468 C   0  0  0  0  0  4           0  0  0
   -3.1636   -0.0426    7.9997 C   0  0  0  0  0  4           0  0  0
   -2.6164   -1.1886    7.4329 C   0  0  0  0  0  4           0  0  0
    1.7712   -2.5125   -0.0484 C   0  0  0  0  0  4           0  0  0
    0.0000    0.0000   -0.0000 C   0  0  0  0  0  4           0  0  0
    1.7871    2.5213    0.0137 C   0  0  0  0  0  4           0  0  0
    2.5459    3.3811   -0.9909 C   0  0  0  0  0  4           0  0  0
    2.0991    4.8432   -1.0297 C   0  0  0  0  0  4           0  0  0
    2.8762    5.6718   -2.0418 C   0  0  0  0  0  4           0  0  0
  1  9  1  0     0  0
  2 25  1  0     0  0
  3  4  2  0     0  0
  3  5  1  0     0  0
  4  6  1  0     0  0
  5 10  1  0     0  0
  6 10  2  0     0  0
  7 11  1  0     0  0
  7 12  1  0     0  0
  7 26  1  0     0  0
  8  9  1  0     0  0
  8 11  2  0     0  0
  9 12  2  0     0  0
 10 13  1  0     0  0
 11 27  1  0     0  0
 12 25  1  0     0  0
 13 14  1  0     0  0
 13 17  2  0     0  0
 14 15  1  0     0  0
 14 18  2  0     0  0
 15 19  2  0     0  0
 15 20  1  0     0  0
 16 21  2  0     0  0
 16 22  1  0     0  0
 16 26  1  0     0  0
 17 23  1  0     0  0
 18 24  1  0     0  0
 19 21  1  0     0  0
 20 22  2  0     0  0
 23 24  2  0     0  0
 27 28  1  0     0  0
 28 29  1  0     0  0
 29 30  1  0     0  0
M  END
> <standard_type>
pIC50

> <# Confs.>
25

> <canonical_smiles>
ClC(N=C1CCCC)=C(CO)N1CC2=CC=C(C3=CC=CC=C3C4=NN=NN4)C=C2

> <standard_relation>
=

> <Publication_ID>
nan

> <predicted_activity_value>
7.853871964321762

> <actual_activity_value>
7.721246399047171

> <Compound>
2

> <standard_units>
nM

> hash
1860001942647851610

$$$$
2_
XXILIB    08252103513D 0   0.00000     0.00000

 30 33  0     1  0            999 V2000
    5.0018    1.5001    0.0754 Cl  0  0  0  0  0  1           0  0  0
    1.6088    2.9014    1.4055 O   0  0  0  0  0  2           0  0  0
   -5.3910   -1.4412    2.9777 N   0  0  0  0  0  3           0  0  0
   -5.3189   -2.5916    3.6333 N   0  0  0  0  0  3           0  0  0
   -4.6472   -0.5866    3.6928 N   0  0  0  0  0  3           0  0  0
   -4.5362   -2.4722    4.7581 N   0  0  0  0  0  3           0  0  0
    1.4523    0.0000    0.0000 N   0  0  0  0  0  3           0  0  0
    3.5402   -0.7587    0.0177 N   0  0  0  0  0  3           0  0  0
    3.5479    0.6111    0.0382 C   0  0  0  0  0  4           0  0  0
   -4.1215   -1.2207    4.7857 C   0  0  0  0  0  4           0  0  0
    2.2705   -1.1132    0.0000 C   0  0  0  0  0  4           0  0  0
    2.2622    1.1181    0.0299 C   0  0  0  0  0  4           0  0  0
   -3.2747   -0.5838    5.7647 C   0  0  0  0  0  4           0  0  0
   -2.0364    0.0012    5.4141 C   0  0  0  0  0  4           0  0  0
   -1.5275    0.0005    4.0481 C   0  0  0  0  0  4           0  0  0
   -0.5412    0.0000    1.3973 C   0  0  0  0  0  4           0  0  0
   -3.7044   -0.5629    7.1019 C   0  0  0  0  0  4           0  0  0
   -1.2671    0.6012    6.4297 C   0  0  0  0  0  4           0  0  0
   -1.2884   -1.2046    3.3712 C   0  0  0  0  0  4           0  0  0
   -1.2624    1.2052    3.3807 C   0  0  0  0  0  4           0  0  0
   -0.7987   -1.2048    2.0620 C   0  0  0  0  0  4           0  0  0
   -0.7726    1.2049    2.0716 C   0  0  0  0  0  4           0  0  0
   -2.9250    0.0369    8.0896 C   0  0  0  0  0  4           0  0  0
   -1.7078    0.6199    7.7539 C   0  0  0  0  0  4           0  0  0
    1.7712    2.5125    0.0484 C   0  0  0  0  0  4           0  0  0
    0.0000   -0.0000    0.0000 C   0  0  0  0  0  4           0  0  0
    1.7871   -2.5213   -0.0137 C   0  0  0  0  0  4           0  0  0
    2.5459   -3.3811    0.9909 C   0  0  0  0  0  4           0  0  0
    2.0991   -4.8432    1.0297 C   0  0  0  0  0  4           0  0  0
    2.8762   -5.6718    2.0418 C   0  0  0  0  0  4           0  0  0
  1  9  1  0     0  0
  2 25  1  0     0  0
  3  4  2  0     0  0
  3  5  1  0     0  0
  4  6  1  0     0  0
  5 10  1  0     0  0
  6 10  2  0     0  0
  7 11  1  0     0  0
  7 12  1  0     0  0
  7 26  1  0     0  0
  8  9  1  0     0  0
  8 11  2  0     0  0
  9 12  2  0     0  0
 10 13  1  0     0  0
 11 27  1  0     0  0
 12 25  1  0     0  0
 13 14  1  0     0  0
 13 17  2  0     0  0
 14 15  1  0     0  0
 14 18  2  0     0  0
 15 19  2  0     0  0
 15 20  1  0     0  0
 16 21  2  0     0  0
 16 22  1  0     0  0
 16 26  1  0     0  0
 17 23  1  0     0  0
 18 24  1  0     0  0
 19 21  1  0     0  0
 20 22  2  0     0  0
 23 24  2  0     0  0
 27 28  1  0     0  0
 28 29  1  0     0  0
 29 30  1  0     0  0
M  END
> <standard_type>
pIC50

> <# Confs.>
25

> <canonical_smiles>
ClC(N=C1CCCC)=C(CO)N1CC2=CC=C(C3=CC=CC=C3C4=NN=NN4)C=C2

> <standard_relation>
=

> <Publication_ID>
nan

> <predicted_activity_value>
7.853871964321762

> <actual_activity_value>
7.721246399047171

> <Compound>
2

> <standard_units>
nM

> hash
1860001942647851610

$$$$
2_
XXILIB    08252103513D 0   0.00000     0.00000

 30 33  0     1  0            999 V2000
    5.0018   -1.5001   -0.0754 Cl  0  0  0  0  0  1           0  0  0
    1.6088   -2.9014   -1.4055 O   0  0  0  0  0  2           0  0  0
   -3.2863    3.9132    3.6741 N   0  0  0  0  0  3           0  0  0
   -2.5390    4.4970    4.6010 N   0  0  0  0  0  3           0  0  0
   -3.4154    2.6433    4.0809 N   0  0  0  0  0  3           0  0  0
   -2.1932    3.6068    5.5911 N   0  0  0  0  0  3           0  0  0
    1.4523    0.0000    0.0000 N   0  0  0  0  0  3           0  0  0
    3.5402    0.7587   -0.0177 N   0  0  0  0  0  3           0  0  0
    3.5479   -0.6111   -0.0382 C   0  0  0  0  0  4           0  0  0
   -2.7447    2.4558    5.2590 C   0  0  0  0  0  4           0  0  0
    2.2705    1.1132    0.0000 C   0  0  0  0  0  4           0  0  0
    2.2622   -1.1181   -0.0299 C   0  0  0  0  0  4           0  0  0
   -2.6808    1.2000    5.9661 C   0  0  0  0  0  4           0  0  0
   -2.1274    0.0392    5.3788 C   0  0  0  0  0  4           0  0  0
   -1.5880    0.0263    4.0246 C   0  0  0  0  0  4           0  0  0
   -0.5412    0.0000    1.3973 C   0  0  0  0  0  4           0  0  0
   -3.1973    1.1452    7.2712 C   0  0  0  0  0  4           0  0  0
   -2.1046   -1.1486    6.1350 C   0  0  0  0  0  4           0  0  0
   -0.5201    0.8633    3.6688 C   0  0  0  0  0  4           0  0  0
   -2.1271   -0.8211    3.0458 C   0  0  0  0  0  4           0  0  0
   -0.0043    0.8520    2.3697 C   0  0  0  0  0  4           0  0  0
   -1.6113   -0.8323    1.7468 C   0  0  0  0  0  4           0  0  0
   -3.1636   -0.0426    7.9997 C   0  0  0  0  0  4           0  0  0
   -2.6164   -1.1886    7.4329 C   0  0  0  0  0  4           0  0  0
    1.7712   -2.5125   -0.0484 C   0  0  0  0  0  4           0  0  0
    0.0000    0.0000   -0.0000 C   0  0  0  0  0  4           0  0  0
    1.7871    2.5213    0.0137 C   0  0  0  0  0  4           0  0  0
    2.5640    3.3678    1.0157 C   0  0  0  0  0  4           0  0  0
    2.1181    4.8292    1.0819 C   0  0  0  0  0  4           0  0  0
    2.9134    5.6445    2.0907 C   0  0  0  0  0  4           0  0  0
  1  9  1  0     0  0
  2 25  1  0     0  0
  3  4  2  0     0  0
  3  5  1  0     0  0
  4  6  1  0     0  0
  5 10  1  0     0  0
  6 10  2  0     0  0
  7 11  1  0     0  0
  7 12  1  0     0  0
  7 26  1  0     0  0
  8  9  1  0     0  0
  8 11  2  0     0  0
  9 12  2  0     0  0
 10 13  1  0     0  0
 11 27  1  0     0  0
 12 25  1  0     0  0
 13 14  1  0     0  0
 13 17  2  0     0  0
 14 15  1  0     0  0
 14 18  2  0     0  0
 15 19  2  0     0  0
 15 20  1  0     0  0
 16 21  2  0     0  0
 16 22  1  0     0  0
 16 26  1  0     0  0
 17 23  1  0     0  0
 18 24  1  0     0  0
 19 21  1  0     0  0
 20 22  2  0     0  0
 23 24  2  0     0  0
 27 28  1  0     0  0
 28 29  1  0     0  0
 29 30  1  0     0  0
M  END
> <standard_type>
pIC50

> <# Confs.>
25

> <canonical_smiles>
ClC(N=C1CCCC)=C(CO)N1CC2=CC=C(C3=CC=CC=C3C4=NN=NN4)C=C2

> <standard_relation>
=

> <Publication_ID>
nan

> <predicted_activity_value>
7.853871964321762

> <actual_activity_value>
7.721246399047171

> <Compound>
2

> <standard_units>
nM

> hash
1860001942647851610

$$$$
2_
XXILIB    08252103513D 0   0.00000     0.00000

 30 33  0     1  0            999 V2000
    5.0018   -1.5001   -0.0754 Cl  0  0  0  0  0  1           0  0  0
    0.7122   -2.5912   -0.9927 O   0  0  0  0  0  2           0  0  0
   -5.3910   -1.4412    2.9777 N   0  0  0  0  0  3           0  0  0
   -5.3189   -2.5916    3.6333 N   0  0  0  0  0  3           0  0  0
   -4.6472   -0.5866    3.6928 N   0  0  0  0  0  3           0  0  0
   -4.5362   -2.4722    4.7581 N   0  0  0  0  0  3           0  0  0
    1.4523   -0.0000   -0.0000 N   0  0  0  0  0  3           0  0  0
    3.5402    0.7587   -0.0177 N   0  0  0  0  0  3           0  0  0
    3.5479   -0.6111   -0.0382 C   0  0  0  0  0  4           0  0  0
   -4.1215   -1.2207    4.7857 C   0  0  0  0  0  4           0  0  0
    2.2705    1.1132   -0.0000 C   0  0  0  0  0  4           0  0  0
    2.2622   -1.1181   -0.0299 C   0  0  0  0  0  4           0  0  0
   -3.2747   -0.5838    5.7647 C   0  0  0  0  0  4           0  0  0
   -2.0364    0.0012    5.4141 C   0  0  0  0  0  4           0  0  0
   -1.5275    0.0005    4.0481 C   0  0  0  0  0  4           0  0  0
   -0.5412    0.0000    1.3973 C   0  0  0  0  0  4           0  0  0
   -3.7044   -0.5629    7.1019 C   0  0  0  0  0  4           0  0  0
   -1.2671    0.6012    6.4297 C   0  0  0  0  0  4           0  0  0
   -1.2884   -1.2046    3.3712 C   0  0  0  0  0  4           0  0  0
   -1.2624    1.2052    3.3807 C   0  0  0  0  0  4           0  0  0
   -0.7987   -1.2048    2.0620 C   0  0  0  0  0  4           0  0  0
   -0.7726    1.2049    2.0716 C   0  0  0  0  0  4           0  0  0
   -2.9250    0.0369    8.0896 C   0  0  0  0  0  4           0  0  0
   -1.7078    0.6199    7.7539 C   0  0  0  0  0  4           0  0  0
    1.7712   -2.5125   -0.0484 C   0  0  0  0  0  4           0  0  0
    0.0000   -0.0000    0.0000 C   0  0  0  0  0  4           0  0  0
    1.7871    2.5213    0.0137 C   0  0  0  0  0  4           0  0  0
    2.5459    3.3811   -0.9909 C   0  0  0  0  0  4           0  0  0
    2.0991    4.8432   -1.0297 C   0  0  0  0  0  4           0  0  0
    2.8762    5.6718   -2.0418 C   0  0  0  0  0  4           0  0  0
  1  9  1  0     0  0
  2 25  1  0     0  0
  3  4  2  0     0  0
  3  5  1  0     0  0
  4  6  1  0     0  0
  5 10  1  0     0  0
  6 10  2  0     0  0
  7 11  1  0     0  0
  7 12  1  0     0  0
  7 26  1  0     0  0
  8  9  1  0     0  0
  8 11  2  0     0  0
  9 12  2  0     0  0
 10 13  1  0     0  0
 11 27  1  0     0  0
 12 25  1  0     0  0
 13 14  1  0     0  0
 13 17  2  0     0  0
 14 15  1  0     0  0
 14 18  2  0     0  0
 15 19  2  0     0  0
 15 20  1  0     0  0
 16 21  2  0     0  0
 16 22  1  0     0  0
 16 26  1  0     0  0
 17 23  1  0     0  0
 18 24  1  0     0  0
 19 21  1  0     0  0
 20 22  2  0     0  0
 23 24  2  0     0  0
 27 28  1  0     0  0
 28 29  1  0     0  0
 29 30  1  0     0  0
M  END
> <standard_type>
pIC50

> <# Confs.>
25

> <canonical_smiles>
ClC(N=C1CCCC)=C(CO)N1CC2=CC=C(C3=CC=CC=C3C4=NN=NN4)C=C2

> <standard_relation>
=

> <Publication_ID>
nan

> <predicted_activity_value>
7.853871964321762

> <actual_activity_value>
7.721246399047171

> <Compound>
2

> <standard_units>
nM

> hash
1860001942647851610

$$$$
2_
XXILIB    08252103513D 0   0.00000     0.00000

 30 33  0     1  0            999 V2000
    5.0018   -1.5001   -0.0754 Cl  0  0  0  0  0  1           0  0  0
    1.6088   -2.9014   -1.4055 O   0  0  0  0  0  2           0  0  0
   -5.3152   -1.7373    2.8882 N   0  0  0  0  0  3           0  0  0
   -6.0743   -0.7057    3.2316 N   0  0  0  0  0  3           0  0  0
   -4.2849   -1.7108    3.7441 N   0  0  0  0  0  3           0  0  0
   -5.5326   -0.0256    4.2976 N   0  0  0  0  0  3           0  0  0
    1.4523   -0.0000   -0.0000 N   0  0  0  0  0  3           0  0  0
    3.5402    0.7587   -0.0177 N   0  0  0  0  0  3           0  0  0
    3.5479   -0.6111   -0.0382 C   0  0  0  0  0  4           0  0  0
   -4.4194   -0.6599    4.6103 C   0  0  0  0  0  4           0  0  0
    2.2705    1.1132    0.0000 C   0  0  0  0  0  4           0  0  0
    2.2622   -1.1181   -0.0299 C   0  0  0  0  0  4           0  0  0
   -3.4783   -0.3448    5.6572 C   0  0  0  0  0  4           0  0  0
   -2.1258   -0.0409    5.3794 C   0  0  0  0  0  4           0  0  0
   -1.5873   -0.0271    4.0249 C   0  0  0  0  0  4           0  0  0
   -0.5412    0.0000    1.3973 C   0  0  0  0  0  4           0  0  0
   -3.9341   -0.3551    6.9858 C   0  0  0  0  0  4           0  0  0
   -1.2698    0.2534    6.4583 C   0  0  0  0  0  4           0  0  0
   -2.1086    0.8402    3.0535 C   0  0  0  0  0  4           0  0  0
   -0.5377   -0.8833    3.6614 C   0  0  0  0  0  4           0  0  0
   -1.5932    0.8520    1.7543 C   0  0  0  0  0  4           0  0  0
   -0.0224   -0.8716    2.3622 C   0  0  0  0  0  4           0  0  0
   -3.0675   -0.0605    8.0369 C   0  0  0  0  0  4           0  0  0
   -1.7365    0.2450    7.7737 C   0  0  0  0  0  4           0  0  0
    1.7712   -2.5125   -0.0484 C   0  0  0  0  0  4           0  0  0
    0.0000    0.0000    0.0000 C   0  0  0  0  0  4           0  0  0
    1.7871    2.5213    0.0137 C   0  0  0  0  0  4           0  0  0
    1.5933    3.0579   -1.4000 C   0  0  0  0  0  4           0  0  0
    2.8642    3.0590   -2.2508 C   0  0  0  0  0  4           0  0  0
    2.6353    3.6002   -3.6542 C   0  0  0  0  0  4           0  0  0
  1  9  1  0     0  0
  2 25  1  0     0  0
  3  4  2  0     0  0
  3  5  1  0     0  0
  4  6  1  0     0  0
  5 10  1  0     0  0
  6 10  2  0     0  0
  7 11  1  0     0  0
  7 12  1  0     0  0
  7 26  1  0     0  0
  8  9  1  0     0  0
  8 11  2  0     0  0
  9 12  2  0     0  0
 10 13  1  0     0  0
 11 27  1  0     0  0
 12 25  1  0     0  0
 13 14  1  0     0  0
 13 17  2  0     0  0
 14 15  1  0     0  0
 14 18  2  0     0  0
 15 19  2  0     0  0
 15 20  1  0     0  0
 16 21  2  0     0  0
 16 22  1  0     0  0
 16 26  1  0     0  0
 17 23  1  0     0  0
 18 24  1  0     0  0
 19 21  1  0     0  0
 20 22  2  0     0  0
 23 24  2  0     0  0
 27 28  1  0     0  0
 28 29  1  0     0  0
 29 30  1  0     0  0
M  END
> <standard_type>
pIC50

> <# Confs.>
25

> <canonical_smiles>
ClC(N=C1CCCC)=C(CO)N1CC2=CC=C(C3=CC=CC=C3C4=NN=NN4)C=C2

> <standard_relation>
=

> <Publication_ID>
nan

> <predicted_activity_value>
7.853871964321762

> <actual_activity_value>
7.721246399047171

> <Compound>
2

> <standard_units>
nM

> hash
1860001942647851610

$$$$
2_
XXILIB    08252103513D 0   0.00000     0.00000

 30 33  0     1  0            999 V2000
    5.0018    1.5001    0.0754 Cl  0  0  0  0  0  1           0  0  0
    1.6088    2.9014    1.4055 O   0  0  0  0  0  2           0  0  0
   -5.3910   -1.4412    2.9777 N   0  0  0  0  0  3           0  0  0
   -5.3189   -2.5916    3.6333 N   0  0  0  0  0  3           0  0  0
   -4.6472   -0.5866    3.6928 N   0  0  0  0  0  3           0  0  0
   -4.5362   -2.4722    4.7581 N   0  0  0  0  0  3           0  0  0
    1.4523    0.0000    0.0000 N   0  0  0  0  0  3           0  0  0
    3.5402   -0.7587    0.0177 N   0  0  0  0  0  3           0  0  0
    3.5479    0.6111    0.0382 C   0  0  0  0  0  4           0  0  0
   -4.1215   -1.2207    4.7857 C   0  0  0  0  0  4           0  0  0
    2.2705   -1.1132    0.0000 C   0  0  0  0  0  4           0  0  0
    2.2622    1.1181    0.0299 C   0  0  0  0  0  4           0  0  0
   -3.2747   -0.5838    5.7647 C   0  0  0  0  0  4           0  0  0
   -2.0364    0.0012    5.4141 C   0  0  0  0  0  4           0  0  0
   -1.5275    0.0005    4.0481 C   0  0  0  0  0  4           0  0  0
   -0.5412    0.0000    1.3973 C   0  0  0  0  0  4           0  0  0
   -3.7044   -0.5629    7.1019 C   0  0  0  0  0  4           0  0  0
   -1.2671    0.6012    6.4297 C   0  0  0  0  0  4           0  0  0
   -1.2884   -1.2046    3.3712 C   0  0  0  0  0  4           0  0  0
   -1.2624    1.2052    3.3807 C   0  0  0  0  0  4           0  0  0
   -0.7987   -1.2048    2.0620 C   0  0  0  0  0  4           0  0  0
   -0.7726    1.2049    2.0716 C   0  0  0  0  0  4           0  0  0
   -2.9250    0.0369    8.0896 C   0  0  0  0  0  4           0  0  0
   -1.7078    0.6199    7.7539 C   0  0  0  0  0  4           0  0  0
    1.7712    2.5125    0.0484 C   0  0  0  0  0  4           0  0  0
    0.0000   -0.0000    0.0000 C   0  0  0  0  0  4           0  0  0
    1.7871   -2.5213   -0.0137 C   0  0  0  0  0  4           0  0  0
    2.5459   -3.3811    0.9909 C   0  0  0  0  0  4           0  0  0
    2.4226   -2.9092    2.4404 C   0  0  0  0  0  4           0  0  0
    3.1912   -3.7887    3.4155 C   0  0  0  0  0  4           0  0  0
  1  9  1  0     0  0
  2 25  1  0     0  0
  3  4  2  0     0  0
  3  5  1  0     0  0
  4  6  1  0     0  0
  5 10  1  0     0  0
  6 10  2  0     0  0
  7 11  1  0     0  0
  7 12  1  0     0  0
  7 26  1  0     0  0
  8  9  1  0     0  0
  8 11  2  0     0  0
  9 12  2  0     0  0
 10 13  1  0     0  0
 11 27  1  0     0  0
 12 25  1  0     0  0
 13 14  1  0     0  0
 13 17  2  0     0  0
 14 15  1  0     0  0
 14 18  2  0     0  0
 15 19  2  0     0  0
 15 20  1  0     0  0
 16 21  2  0     0  0
 16 22  1  0     0  0
 16 26  1  0     0  0
 17 23  1  0     0  0
 18 24  1  0     0  0
 19 21  1  0     0  0
 20 22  2  0     0  0
 23 24  2  0     0  0
 27 28  1  0     0  0
 28 29  1  0     0  0
 29 30  1  0     0  0
M  END
> <standard_type>
pIC50

> <# Confs.>
25

> <canonical_smiles>
ClC(N=C1CCCC)=C(CO)N1CC2=CC=C(C3=CC=CC=C3C4=NN=NN4)C=C2

> <standard_relation>
=

> <Publication_ID>
nan

> <predicted_activity_value>
7.853871964321762

> <actual_activity_value>
7.721246399047171

> <Compound>
2

> <standard_units>
nM

> hash
1860001942647851610

$$$$
25_
XXILIB    08252103513D 0   0.00000     0.00000

 21 22  0     1  0            999 V2000
   -3.3323   -0.0164   -1.7737 Cl  0  0  0  0  0  1           0  0  0
   -3.6351   -1.8419    3.1727 O   0  0  0  0  0  2           0  0  0
   -4.0894   -2.0700    0.9582 O   0  0  0  0  0  2           0  0  0
   -0.7894    0.0000    1.1322 N   0  0  0  0  0  3           0  0  0
   -0.7457   -0.0035   -1.0847 N   0  0  0  0  0  3           0  0  0
   -2.0471    0.0029   -0.6516 C   0  0  0  0  0  4           0  0  0
    0.0000    0.0000    0.0000 C   0  0  0  0  0  4           0  0  0
   -2.1161    0.0199    0.7323 C   0  0  0  0  0  4           0  0  0
   -0.1225    1.3716    3.0300 C   0  0  0  0  0  4           0  0  0
   -0.3912    2.4829    2.2185 C   0  0  0  0  0  4           0  0  0
    0.3043    1.5821    4.3490 C   0  0  0  0  0  4           0  0  0
   -0.2282    3.7778    2.7141 C   0  0  0  0  0  4           0  0  0
    0.4675    2.8777    4.8423 C   0  0  0  0  0  4           0  0  0
    0.2010    3.9747    4.0251 C   0  0  0  0  0  4           0  0  0
   -3.6609   -1.3737    2.0415 C   0  0  0  0  0  4           0  0  0
   -0.3165   -0.0182    2.5059 C   0  0  0  0  0  4           0  0  0
    1.4870    0.0000    0.0000 C   0  0  0  0  0  4           0  0  0
   -3.2396    0.0279    1.7027 C   0  0  0  0  0  4           0  0  0
    2.0677   -1.4109    0.0000 C   0  0  0  0  0  4           0  0  0
    3.5956   -1.4697    0.0000 C   0  0  0  0  0  4           0  0  0
    4.1362   -2.8919    0.0000 C   0  0  0  0  0  4           0  0  0
  1  6  1  0     0  0
  2 15  2  0     0  0
  3 15  1  0     0  0
  4  7  1  0     0  0
  4  8  1  0     0  0
  4 16  1  0     0  0
  5  6  1  0     0  0
  5  7  2  0     0  0
  6  8  2  0     0  0
  7 17  1  0     0  0
  8 18  1  0     0  0
  9 10  2  0     0  0
  9 11  1  0     0  0
  9 16  1  0     0  0
 10 12  1  0     0  0
 11 13  2  0     0  0
 12 14  2  0     0  0
 13 14  1  0     0  0
 15 18  1  0     0  0
 17 19  1  0     0  0
 19 20  1  0     0  0
 20 21  1  0     0  0
M  END
> <standard_type>
pIC50

> <# Confs.>
25

> <canonical_smiles>
CCCCC1=NC(Cl)=C(CC(O)=O)N1CC2=CC=CC=C2

> <standard_relation>
=

> <Publication_ID>
nan

> <predicted_activity_value>
5.0

> <actual_activity_value>
3.8239087409443187

> <Compound>
25

> <standard_units>
nM

> hash
1023660401049005096

$$$$
25_
XXILIB    08252103513D 0   0.00000     0.00000

 21 22  0     1  0            999 V2000
   -3.3323   -0.0164   -1.7737 Cl  0  0  0  0  0  1           0  0  0
   -3.5868    1.8872    3.1978 O   0  0  0  0  0  2           0  0  0
   -4.0091    2.1649    0.9826 O   0  0  0  0  0  2           0  0  0
   -0.7894   -0.0000    1.1322 N   0  0  0  0  0  3           0  0  0
   -0.7457   -0.0035   -1.0847 N   0  0  0  0  0  3           0  0  0
   -2.0471    0.0029   -0.6516 C   0  0  0  0  0  4           0  0  0
    0.0000    0.0000   -0.0000 C   0  0  0  0  0  4           0  0  0
   -2.1161    0.0199    0.7323 C   0  0  0  0  0  4           0  0  0
   -0.1581   -1.4216    3.0052 C   0  0  0  0  0  4           0  0  0
   -0.4549   -2.5111    2.1741 C   0  0  0  0  0  4           0  0  0
    0.3157   -1.6669    4.3019 C   0  0  0  0  0  4           0  0  0
   -0.2889   -3.8188    2.6341 C   0  0  0  0  0  4           0  0  0
    0.4802   -2.9752    4.7602 C   0  0  0  0  0  4           0  0  0
    0.1782   -4.0502    3.9264 C   0  0  0  0  0  4           0  0  0
   -3.6245    1.4352    2.0604 C   0  0  0  0  0  4           0  0  0
   -0.3165   -0.0182    2.5059 C   0  0  0  0  0  4           0  0  0
    1.4870    0.0000    0.0000 C   0  0  0  0  0  4           0  0  0
   -3.2396    0.0279    1.7027 C   0  0  0  0  0  4           0  0  0
    2.0677    1.4109    0.0000 C   0  0  0  0  0  4           0  0  0
    3.5956    1.4697   -0.0000 C   0  0  0  0  0  4           0  0  0
    4.1362    2.8919    0.0000 C   0  0  0  0  0  4           0  0  0
  1  6  1  0     0  0
  2 15  2  0     0  0
  3 15  1  0     0  0
  4  7  1  0     0  0
  4  8  1  0     0  0
  4 16  1  0     0  0
  5  6  1  0     0  0
  5  7  2  0     0  0
  6  8  2  0     0  0
  7 17  1  0     0  0
  8 18  1  0     0  0
  9 10  2  0     0  0
  9 11  1  0     0  0
  9 16  1  0     0  0
 10 12  1  0     0  0
 11 13  2  0     0  0
 12 14  2  0     0  0
 13 14  1  0     0  0
 15 18  1  0     0  0
 17 19  1  0     0  0
 19 20  1  0     0  0
 20 21  1  0     0  0
M  END
> <standard_type>
pIC50

> <# Confs.>
25

> <canonical_smiles>
CCCCC1=NC(Cl)=C(CC(O)=O)N1CC2=CC=CC=C2

> <standard_relation>
=

> <Publication_ID>
nan

> <predicted_activity_value>
5.0

> <actual_activity_value>
3.8239087409443187

> <Compound>
25

> <standard_units>
nM

> hash
1023660401049005096

$$$$
25_
XXILIB    08252103513D 0   0.00000     0.00000

 21 22  0     1  0            999 V2000
   -3.3323   -0.0164   -1.7737 Cl  0  0  0  0  0  1           0  0  0
   -3.6351   -1.8419    3.1727 O   0  0  0  0  0  2           0  0  0
   -4.0894   -2.0700    0.9582 O   0  0  0  0  0  2           0  0  0
   -0.7894    0.0000    1.1322 N   0  0  0  0  0  3           0  0  0
   -0.7457   -0.0035   -1.0847 N   0  0  0  0  0  3           0  0  0
   -2.0471    0.0029   -0.6516 C   0  0  0  0  0  4           0  0  0
    0.0000    0.0000    0.0000 C   0  0  0  0  0  4           0  0  0
   -2.1161    0.0199    0.7323 C   0  0  0  0  0  4           0  0  0
   -0.1225    1.3716    3.0300 C   0  0  0  0  0  4           0  0  0
   -0.3912    2.4829    2.2185 C   0  0  0  0  0  4           0  0  0
    0.3043    1.5821    4.3490 C   0  0  0  0  0  4           0  0  0
   -0.2282    3.7778    2.7141 C   0  0  0  0  0  4           0  0  0
    0.4675    2.8777    4.8423 C   0  0  0  0  0  4           0  0  0
    0.2010    3.9747    4.0251 C   0  0  0  0  0  4           0  0  0
   -3.6609   -1.3737    2.0415 C   0  0  0  0  0  4           0  0  0
   -0.3165   -0.0182    2.5059 C   0  0  0  0  0  4           0  0  0
    1.4870    0.0000   -0.0000 C   0  0  0  0  0  4           0  0  0
   -3.2396    0.0279    1.7027 C   0  0  0  0  0  4           0  0  0
    2.0677   -1.4109    0.0000 C   0  0  0  0  0  4           0  0  0
    1.6668   -2.2635   -1.2042 C   0  0  0  0  0  4           0  0  0
    2.2647   -3.6621   -1.1684 C   0  0  0  0  0  4           0  0  0
  1  6  1  0     0  0
  2 15  2  0     0  0
  3 15  1  0     0  0
  4  7  1  0     0  0
  4  8  1  0     0  0
  4 16  1  0     0  0
  5  6  1  0     0  0
  5  7  2  0     0  0
  6  8  2  0     0  0
  7 17  1  0     0  0
  8 18  1  0     0  0
  9 10  2  0     0  0
  9 11  1  0     0  0
  9 16  1  0     0  0
 10 12  1  0     0  0
 11 13  2  0     0  0
 12 14  2  0     0  0
 13 14  1  0     0  0
 15 18  1  0     0  0
 17 19  1  0     0  0
 19 20  1  0     0  0
 20 21  1  0     0  0
M  END
> <standard_type>
pIC50

> <# Confs.>
25

> <canonical_smiles>
CCCCC1=NC(Cl)=C(CC(O)=O)N1CC2=CC=CC=C2

> <standard_relation>
=

> <Publication_ID>
nan

> <predicted_activity_value>
5.0

> <actual_activity_value>
3.8239087409443187

> <Compound>
25

> <standard_units>
nM

> hash
1023660401049005096

$$$$
25_
XXILIB    08252103513D 0   0.00000     0.00000

 21 22  0     1  0            999 V2000
   -3.3323   -0.0164   -1.7737 Cl  0  0  0  0  0  1           0  0  0
   -3.5868    1.8872    3.1978 O   0  0  0  0  0  2           0  0  0
   -4.0091    2.1649    0.9826 O   0  0  0  0  0  2           0  0  0
   -0.7894   -0.0000    1.1322 N   0  0  0  0  0  3           0  0  0
   -0.7457   -0.0035   -1.0847 N   0  0  0  0  0  3           0  0  0
   -2.0471    0.0029   -0.6516 C   0  0  0  0  0  4           0  0  0
    0.0000    0.0000   -0.0000 C   0  0  0  0  0  4           0  0  0
   -2.1161    0.0199    0.7323 C   0  0  0  0  0  4           0  0  0
   -0.1581   -1.4216    3.0052 C   0  0  0  0  0  4           0  0  0
   -0.4549   -2.5111    2.1741 C   0  0  0  0  0  4           0  0  0
    0.3157   -1.6669    4.3019 C   0  0  0  0  0  4           0  0  0
   -0.2889   -3.8188    2.6341 C   0  0  0  0  0  4           0  0  0
    0.4802   -2.9752    4.7602 C   0  0  0  0  0  4           0  0  0
    0.1782   -4.0502    3.9264 C   0  0  0  0  0  4           0  0  0
   -3.6245    1.4352    2.0604 C   0  0  0  0  0  4           0  0  0
   -0.3165   -0.0182    2.5059 C   0  0  0  0  0  4           0  0  0
    1.4870   -0.0000   -0.0000 C   0  0  0  0  0  4           0  0  0
   -3.2396    0.0279    1.7027 C   0  0  0  0  0  4           0  0  0
    2.0677    1.4109    0.0000 C   0  0  0  0  0  4           0  0  0
    1.6668    2.2635   -1.2042 C   0  0  0  0  0  4           0  0  0
    2.2647    3.6621   -1.1684 C   0  0  0  0  0  4           0  0  0
  1  6  1  0     0  0
  2 15  2  0     0  0
  3 15  1  0     0  0
  4  7  1  0     0  0
  4  8  1  0     0  0
  4 16  1  0     0  0
  5  6  1  0     0  0
  5  7  2  0     0  0
  6  8  2  0     0  0
  7 17  1  0     0  0
  8 18  1  0     0  0
  9 10  2  0     0  0
  9 11  1  0     0  0
  9 16  1  0     0  0
 10 12  1  0     0  0
 11 13  2  0     0  0
 12 14  2  0     0  0
 13 14  1  0     0  0
 15 18  1  0     0  0
 17 19  1  0     0  0
 19 20  1  0     0  0
 20 21  1  0     0  0
M  END
> <standard_type>
pIC50

> <# Confs.>
25

> <canonical_smiles>
CCCCC1=NC(Cl)=C(CC(O)=O)N1CC2=CC=CC=C2

> <standard_relation>
=

> <Publication_ID>
nan

> <predicted_activity_value>
5.0

> <actual_activity_value>
3.8239087409443187

> <Compound>
25

> <standard_units>
nM

> hash
1023660401049005096

$$$$
25_
XXILIB    08252103513D 0   0.00000     0.00000

 21 22  0     1  0            999 V2000
   -3.3323   -0.0164   -1.7737 Cl  0  0  0  0  0  1           0  0  0
   -3.6351   -1.8419    3.1727 O   0  0  0  0  0  2           0  0  0
   -4.0894   -2.0700    0.9582 O   0  0  0  0  0  2           0  0  0
   -0.7894    0.0000    1.1322 N   0  0  0  0  0  3           0  0  0
   -0.7457   -0.0035   -1.0847 N   0  0  0  0  0  3           0  0  0
   -2.0471    0.0029   -0.6516 C   0  0  0  0  0  4           0  0  0
    0.0000    0.0000    0.0000 C   0  0  0  0  0  4           0  0  0
   -2.1161    0.0199    0.7323 C   0  0  0  0  0  4           0  0  0
   -0.1225    1.3716    3.0300 C   0  0  0  0  0  4           0  0  0
   -0.3912    2.4829    2.2185 C   0  0  0  0  0  4           0  0  0
    0.3043    1.5821    4.3490 C   0  0  0  0  0  4           0  0  0
   -0.2282    3.7778    2.7141 C   0  0  0  0  0  4           0  0  0
    0.4675    2.8777    4.8423 C   0  0  0  0  0  4           0  0  0
    0.2010    3.9747    4.0251 C   0  0  0  0  0  4           0  0  0
   -3.6609   -1.3737    2.0415 C   0  0  0  0  0  4           0  0  0
   -0.3165   -0.0182    2.5059 C   0  0  0  0  0  4           0  0  0
    1.4870   -0.0000    0.0000 C   0  0  0  0  0  4           0  0  0
   -3.2396    0.0279    1.7027 C   0  0  0  0  0  4           0  0  0
    2.0677    0.9977   -0.9977 C   0  0  0  0  0  4           0  0  0
    1.6668    2.4521   -0.7490 C   0  0  0  0  0  4           0  0  0
    2.2647    3.4157   -1.7633 C   0  0  0  0  0  4           0  0  0
  1  6  1  0     0  0
  2 15  2  0     0  0
  3 15  1  0     0  0
  4  7  1  0     0  0
  4  8  1  0     0  0
  4 16  1  0     0  0
  5  6  1  0     0  0
  5  7  2  0     0  0
  6  8  2  0     0  0
  7 17  1  0     0  0
  8 18  1  0     0  0
  9 10  2  0     0  0
  9 11  1  0     0  0
  9 16  1  0     0  0
 10 12  1  0     0  0
 11 13  2  0     0  0
 12 14  2  0     0  0
 13 14  1  0     0  0
 15 18  1  0     0  0
 17 19  1  0     0  0
 19 20  1  0     0  0
 20 21  1  0     0  0
M  END
> <standard_type>
pIC50

> <# Confs.>
25

> <canonical_smiles>
CCCCC1=NC(Cl)=C(CC(O)=O)N1CC2=CC=CC=C2

> <standard_relation>
=

> <Publication_ID>
nan

> <predicted_activity_value>
5.0

> <actual_activity_value>
3.8239087409443187

> <Compound>
25

> <standard_units>
nM

> hash
1023660401049005096

$$$$
25_
XXILIB    08252103513D 0   0.00000     0.00000

 21 22  0     1  0            999 V2000
   -3.3323   -0.0164   -1.7737 Cl  0  0  0  0  0  1           0  0  0
   -3.6351   -1.8419    3.1727 O   0  0  0  0  0  2           0  0  0
   -4.0894   -2.0700    0.9582 O   0  0  0  0  0  2           0  0  0
   -0.7894    0.0000    1.1322 N   0  0  0  0  0  3           0  0  0
   -0.7457   -0.0035   -1.0847 N   0  0  0  0  0  3           0  0  0
   -2.0471    0.0029   -0.6516 C   0  0  0  0  0  4           0  0  0
    0.0000    0.0000    0.0000 C   0  0  0  0  0  4           0  0  0
   -2.1161    0.0199    0.7323 C   0  0  0  0  0  4           0  0  0
   -0.1225    1.3716    3.0300 C   0  0  0  0  0  4           0  0  0
   -0.3912    2.4829    2.2185 C   0  0  0  0  0  4           0  0  0
    0.3043    1.5821    4.3490 C   0  0  0  0  0  4           0  0  0
   -0.2282    3.7778    2.7141 C   0  0  0  0  0  4           0  0  0
    0.4675    2.8777    4.8423 C   0  0  0  0  0  4           0  0  0
    0.2010    3.9747    4.0251 C   0  0  0  0  0  4           0  0  0
   -3.6609   -1.3737    2.0415 C   0  0  0  0  0  4           0  0  0
   -0.3165   -0.0182    2.5059 C   0  0  0  0  0  4           0  0  0
    1.4870    0.0000    0.0000 C   0  0  0  0  0  4           0  0  0
   -3.2396    0.0279    1.7027 C   0  0  0  0  0  4           0  0  0
    2.0677    0.0000   -1.4109 C   0  0  0  0  0  4           0  0  0
    3.5956    0.0000   -1.4697 C   0  0  0  0  0  4           0  0  0
    4.1362    0.0000   -2.8919 C   0  0  0  0  0  4           0  0  0
  1  6  1  0     0  0
  2 15  2  0     0  0
  3 15  1  0     0  0
  4  7  1  0     0  0
  4  8  1  0     0  0
  4 16  1  0     0  0
  5  6  1  0     0  0
  5  7  2  0     0  0
  6  8  2  0     0  0
  7 17  1  0     0  0
  8 18  1  0     0  0
  9 10  2  0     0  0
  9 11  1  0     0  0
  9 16  1  0     0  0
 10 12  1  0     0  0
 11 13  2  0     0  0
 12 14  2  0     0  0
 13 14  1  0     0  0
 15 18  1  0     0  0
 17 19  1  0     0  0
 19 20  1  0     0  0
 20 21  1  0     0  0
M  END
> <standard_type>
pIC50

> <# Confs.>
25

> <canonical_smiles>
CCCCC1=NC(Cl)=C(CC(O)=O)N1CC2=CC=CC=C2

> <standard_relation>
=

> <Publication_ID>
nan

> <predicted_activity_value>
5.0

> <actual_activity_value>
3.8239087409443187

> <Compound>
25

> <standard_units>
nM

> hash
1023660401049005096

$$$$
25_
XXILIB    08252103513D 0   0.00000     0.00000

 21 22  0     1  0            999 V2000
   -3.3323   -0.0164   -1.7737 Cl  0  0  0  0  0  1           0  0  0
   -3.5868    1.8872    3.1978 O   0  0  0  0  0  2           0  0  0
   -4.0091    2.1649    0.9826 O   0  0  0  0  0  2           0  0  0
   -0.7894   -0.0000    1.1322 N   0  0  0  0  0  3           0  0  0
   -0.7457   -0.0035   -1.0847 N   0  0  0  0  0  3           0  0  0
   -2.0471    0.0029   -0.6516 C   0  0  0  0  0  4           0  0  0
    0.0000    0.0000   -0.0000 C   0  0  0  0  0  4           0  0  0
   -2.1161    0.0199    0.7323 C   0  0  0  0  0  4           0  0  0
   -0.1581   -1.4216    3.0052 C   0  0  0  0  0  4           0  0  0
   -0.4549   -2.5111    2.1741 C   0  0  0  0  0  4           0  0  0
    0.3157   -1.6669    4.3019 C   0  0  0  0  0  4           0  0  0
   -0.2889   -3.8188    2.6341 C   0  0  0  0  0  4           0  0  0
    0.4802   -2.9752    4.7602 C   0  0  0  0  0  4           0  0  0
    0.1782   -4.0502    3.9264 C   0  0  0  0  0  4           0  0  0
   -3.6245    1.4352    2.0604 C   0  0  0  0  0  4           0  0  0
   -0.3165   -0.0182    2.5059 C   0  0  0  0  0  4           0  0  0
    1.4870    0.0000    0.0000 C   0  0  0  0  0  4           0  0  0
   -3.2396    0.0279    1.7027 C   0  0  0  0  0  4           0  0  0
    2.0677    0.0000   -1.4109 C   0  0  0  0  0  4           0  0  0
    3.5956    0.0000   -1.4697 C   0  0  0  0  0  4           0  0  0
    4.1362    0.0000   -2.8919 C   0  0  0  0  0  4           0  0  0
  1  6  1  0     0  0
  2 15  2  0     0  0
  3 15  1  0     0  0
  4  7  1  0     0  0
  4  8  1  0     0  0
  4 16  1  0     0  0
  5  6  1  0     0  0
  5  7  2  0     0  0
  6  8  2  0     0  0
  7 17  1  0     0  0
  8 18  1  0     0  0
  9 10  2  0     0  0
  9 11  1  0     0  0
  9 16  1  0     0  0
 10 12  1  0     0  0
 11 13  2  0     0  0
 12 14  2  0     0  0
 13 14  1  0     0  0
 15 18  1  0     0  0
 17 19  1  0     0  0
 19 20  1  0     0  0
 20 21  1  0     0  0
M  END
> <standard_type>
pIC50

> <# Confs.>
25

> <canonical_smiles>
CCCCC1=NC(Cl)=C(CC(O)=O)N1CC2=CC=CC=C2

> <standard_relation>
=

> <Publication_ID>
nan

> <predicted_activity_value>
5.0

> <actual_activity_value>
3.8239087409443187

> <Compound>
25

> <standard_units>
nM

> hash
1023660401049005096

$$$$
25_
XXILIB    08252103513D 0   0.00000     0.00000

 21 22  0     1  0            999 V2000
   -3.3323   -0.0164   -1.7737 Cl  0  0  0  0  0  1           0  0  0
   -3.5868    1.8872    3.1978 O   0  0  0  0  0  2           0  0  0
   -4.0091    2.1649    0.9826 O   0  0  0  0  0  2           0  0  0
   -0.7894   -0.0000    1.1322 N   0  0  0  0  0  3           0  0  0
   -0.7457   -0.0035   -1.0847 N   0  0  0  0  0  3           0  0  0
   -2.0471    0.0029   -0.6516 C   0  0  0  0  0  4           0  0  0
    0.0000    0.0000   -0.0000 C   0  0  0  0  0  4           0  0  0
   -2.1161    0.0199    0.7323 C   0  0  0  0  0  4           0  0  0
   -0.1581   -1.4216    3.0052 C   0  0  0  0  0  4           0  0  0
   -0.4549   -2.5111    2.1741 C   0  0  0  0  0  4           0  0  0
    0.3157   -1.6669    4.3019 C   0  0  0  0  0  4           0  0  0
   -0.2889   -3.8188    2.6341 C   0  0  0  0  0  4           0  0  0
    0.4802   -2.9752    4.7602 C   0  0  0  0  0  4           0  0  0
    0.1782   -4.0502    3.9264 C   0  0  0  0  0  4           0  0  0
   -3.6245    1.4352    2.0604 C   0  0  0  0  0  4           0  0  0
   -0.3165   -0.0182    2.5059 C   0  0  0  0  0  4           0  0  0
    1.4870    0.0000    0.0000 C   0  0  0  0  0  4           0  0  0
   -3.2396    0.0279    1.7027 C   0  0  0  0  0  4           0  0  0
    2.0677   -0.9977   -0.9977 C   0  0  0  0  0  4           0  0  0
    1.6668   -2.4521   -0.7490 C   0  0  0  0  0  4           0  0  0
    2.2647   -3.4157   -1.7633 C   0  0  0  0  0  4           0  0  0
  1  6  1  0     0  0
  2 15  2  0     0  0
  3 15  1  0     0  0
  4  7  1  0     0  0
  4  8  1  0     0  0
  4 16  1  0     0  0
  5  6  1  0     0  0
  5  7  2  0     0  0
  6  8  2  0     0  0
  7 17  1  0     0  0
  8 18  1  0     0  0
  9 10  2  0     0  0
  9 11  1  0     0  0
  9 16  1  0     0  0
 10 12  1  0     0  0
 11 13  2  0     0  0
 12 14  2  0     0  0
 13 14  1  0     0  0
 15 18  1  0     0  0
 17 19  1  0     0  0
 19 20  1  0     0  0
 20 21  1  0     0  0
M  END
> <standard_type>
pIC50

> <# Confs.>
25

> <canonical_smiles>
CCCCC1=NC(Cl)=C(CC(O)=O)N1CC2=CC=CC=C2

> <standard_relation>
=

> <Publication_ID>
nan

> <predicted_activity_value>
5.0

> <actual_activity_value>
3.8239087409443187

> <Compound>
25

> <standard_units>
nM

> hash
1023660401049005096

$$$$
25_
XXILIB    08252103513D 0   0.00000     0.00000

 21 22  0     1  0            999 V2000
   -3.3323   -0.0164   -1.7737 Cl  0  0  0  0  0  1           0  0  0
   -3.5868    1.8872    3.1978 O   0  0  0  0  0  2           0  0  0
   -4.0091    2.1649    0.9826 O   0  0  0  0  0  2           0  0  0
   -0.7894   -0.0000    1.1322 N   0  0  0  0  0  3           0  0  0
   -0.7457   -0.0035   -1.0847 N   0  0  0  0  0  3           0  0  0
   -2.0471    0.0029   -0.6516 C   0  0  0  0  0  4           0  0  0
    0.0000    0.0000   -0.0000 C   0  0  0  0  0  4           0  0  0
   -2.1161    0.0199    0.7323 C   0  0  0  0  0  4           0  0  0
   -0.1581   -1.4216    3.0052 C   0  0  0  0  0  4           0  0  0
    0.4614   -2.3953    2.2090 C   0  0  0  0  0  4           0  0  0
   -0.6023   -1.7758    4.2871 C   0  0  0  0  0  4           0  0  0
    0.6254   -3.6983    2.6827 C   0  0  0  0  0  4           0  0  0
   -0.4380   -3.0794    4.7587 C   0  0  0  0  0  4           0  0  0
    0.1758   -4.0397    3.9567 C   0  0  0  0  0  4           0  0  0
   -3.6245    1.4352    2.0604 C   0  0  0  0  0  4           0  0  0
   -0.3165   -0.0182    2.5059 C   0  0  0  0  0  4           0  0  0
    1.4870    0.0000    0.0000 C   0  0  0  0  0  4           0  0  0
   -3.2396    0.0279    1.7027 C   0  0  0  0  0  4           0  0  0
    2.0677    0.9977   -0.9977 C   0  0  0  0  0  4           0  0  0
    3.5956    1.0392   -1.0392 C   0  0  0  0  0  4           0  0  0
    4.1362    2.0449   -2.0449 C   0  0  0  0  0  4           0  0  0
  1  6  1  0     0  0
  2 15  2  0     0  0
  3 15  1  0     0  0
  4  7  1  0     0  0
  4  8  1  0     0  0
  4 16  1  0     0  0
  5  6  1  0     0  0
  5  7  2  0     0  0
  6  8  2  0     0  0
  7 17  1  0     0  0
  8 18  1  0     0  0
  9 10  2  0     0  0
  9 11  1  0     0  0
  9 16  1  0     0  0
 10 12  1  0     0  0
 11 13  2  0     0  0
 12 14  2  0     0  0
 13 14  1  0     0  0
 15 18  1  0     0  0
 17 19  1  0     0  0
 19 20  1  0     0  0
 20 21  1  0     0  0
M  END
> <standard_type>
pIC50

> <# Confs.>
25

> <canonical_smiles>
CCCCC1=NC(Cl)=C(CC(O)=O)N1CC2=CC=CC=C2

> <standard_relation>
=

> <Publication_ID>
nan

> <predicted_activity_value>
5.0

> <actual_activity_value>
3.8239087409443187

> <Compound>
25

> <standard_units>
nM

> hash
1023660401049005096

$$$$
25_
XXILIB    08252103513D 0   0.00000     0.00000

 21 22  0     1  0            999 V2000
   -3.3323   -0.0164   -1.7737 Cl  0  0  0  0  0  1           0  0  0
   -3.5868    1.8872    3.1978 O   0  0  0  0  0  2           0  0  0
   -4.0091    2.1649    0.9826 O   0  0  0  0  0  2           0  0  0
   -0.7894   -0.0000    1.1322 N   0  0  0  0  0  3           0  0  0
   -0.7457   -0.0035   -1.0847 N   0  0  0  0  0  3           0  0  0
   -2.0471    0.0029   -0.6516 C   0  0  0  0  0  4           0  0  0
    0.0000    0.0000   -0.0000 C   0  0  0  0  0  4           0  0  0
   -2.1161    0.0199    0.7323 C   0  0  0  0  0  4           0  0  0
   -0.1581   -1.4216    3.0052 C   0  0  0  0  0  4           0  0  0
    0.4614   -2.3953    2.2090 C   0  0  0  0  0  4           0  0  0
   -0.6023   -1.7758    4.2871 C   0  0  0  0  0  4           0  0  0
    0.6254   -3.6983    2.6827 C   0  0  0  0  0  4           0  0  0
   -0.4380   -3.0794    4.7587 C   0  0  0  0  0  4           0  0  0
    0.1758   -4.0397    3.9567 C   0  0  0  0  0  4           0  0  0
   -3.6245    1.4352    2.0604 C   0  0  0  0  0  4           0  0  0
   -0.3165   -0.0182    2.5059 C   0  0  0  0  0  4           0  0  0
    1.4870    0.0000    0.0000 C   0  0  0  0  0  4           0  0  0
   -3.2396    0.0279    1.7027 C   0  0  0  0  0  4           0  0  0
    2.0677   -0.9977   -0.9977 C   0  0  0  0  0  4           0  0  0
    3.5956   -1.0392   -1.0392 C   0  0  0  0  0  4           0  0  0
    4.1362   -2.0449   -2.0449 C   0  0  0  0  0  4           0  0  0
  1  6  1  0     0  0
  2 15  2  0     0  0
  3 15  1  0     0  0
  4  7  1  0     0  0
  4  8  1  0     0  0
  4 16  1  0     0  0
  5  6  1  0     0  0
  5  7  2  0     0  0
  6  8  2  0     0  0
  7 17  1  0     0  0
  8 18  1  0     0  0
  9 10  2  0     0  0
  9 11  1  0     0  0
  9 16  1  0     0  0
 10 12  1  0     0  0
 11 13  2  0     0  0
 12 14  2  0     0  0
 13 14  1  0     0  0
 15 18  1  0     0  0
 17 19  1  0     0  0
 19 20  1  0     0  0
 20 21  1  0     0  0
M  END
> <standard_type>
pIC50

> <# Confs.>
25

> <canonical_smiles>
CCCCC1=NC(Cl)=C(CC(O)=O)N1CC2=CC=CC=C2

> <standard_relation>
=

> <Publication_ID>
nan

> <predicted_activity_value>
5.0

> <actual_activity_value>
3.8239087409443187

> <Compound>
25

> <standard_units>
nM

> hash
1023660401049005096

$$$$
25_
XXILIB    08252103513D 0   0.00000     0.00000

 21 22  0     1  0            999 V2000
   -3.3323   -0.0164   -1.7737 Cl  0  0  0  0  0  1           0  0  0
   -3.1364    2.0628    2.9917 O   0  0  0  0  0  2           0  0  0
   -4.5673    1.9492    1.2304 O   0  0  0  0  0  2           0  0  0
   -0.7894   -0.0000    1.1322 N   0  0  0  0  0  3           0  0  0
   -0.7457   -0.0035   -1.0847 N   0  0  0  0  0  3           0  0  0
   -2.0471    0.0029   -0.6516 C   0  0  0  0  0  4           0  0  0
    0.0000    0.0000   -0.0000 C   0  0  0  0  0  4           0  0  0
   -2.1161    0.0199    0.7323 C   0  0  0  0  0  4           0  0  0
   -0.1581   -1.4216    3.0052 C   0  0  0  0  0  4           0  0  0
   -0.4549   -2.5111    2.1741 C   0  0  0  0  0  4           0  0  0
    0.3157   -1.6669    4.3019 C   0  0  0  0  0  4           0  0  0
   -0.2889   -3.8188    2.6341 C   0  0  0  0  0  4           0  0  0
    0.4802   -2.9752    4.7602 C   0  0  0  0  0  4           0  0  0
    0.1782   -4.0502    3.9264 C   0  0  0  0  0  4           0  0  0
   -3.6245    1.4352    2.0604 C   0  0  0  0  0  4           0  0  0
   -0.3165   -0.0182    2.5059 C   0  0  0  0  0  4           0  0  0
    1.4870    0.0000    0.0000 C   0  0  0  0  0  4           0  0  0
   -3.2396    0.0279    1.7027 C   0  0  0  0  0  4           0  0  0
    2.0677    1.4109    0.0000 C   0  0  0  0  0  4           0  0  0
    3.5956    1.4697   -0.0000 C   0  0  0  0  0  4           0  0  0
    4.2170    0.7929    1.2128 C   0  0  0  0  0  4           0  0  0
  1  6  1  0     0  0
  2 15  2  0     0  0
  3 15  1  0     0  0
  4  7  1  0     0  0
  4  8  1  0     0  0
  4 16  1  0     0  0
  5  6  1  0     0  0
  5  7  2  0     0  0
  6  8  2  0     0  0
  7 17  1  0     0  0
  8 18  1  0     0  0
  9 10  2  0     0  0
  9 11  1  0     0  0
  9 16  1  0     0  0
 10 12  1  0     0  0
 11 13  2  0     0  0
 12 14  2  0     0  0
 13 14  1  0     0  0
 15 18  1  0     0  0
 17 19  1  0     0  0
 19 20  1  0     0  0
 20 21  1  0     0  0
M  END
> <standard_type>
pIC50

> <# Confs.>
25

> <canonical_smiles>
CCCCC1=NC(Cl)=C(CC(O)=O)N1CC2=CC=CC=C2

> <standard_relation>
=

> <Publication_ID>
nan

> <predicted_activity_value>
5.0

> <actual_activity_value>
3.8239087409443187

> <Compound>
25

> <standard_units>
nM

> hash
1023660401049005096

$$$$
25_
XXILIB    08252103513D 0   0.00000     0.00000

 21 22  0     1  0            999 V2000
   -3.3323   -0.0164   -1.7737 Cl  0  0  0  0  0  1           0  0  0
   -3.6351   -1.8419    3.1727 O   0  0  0  0  0  2           0  0  0
   -4.0894   -2.0700    0.9582 O   0  0  0  0  0  2           0  0  0
   -0.7894    0.0000    1.1322 N   0  0  0  0  0  3           0  0  0
   -0.7457   -0.0035   -1.0847 N   0  0  0  0  0  3           0  0  0
   -2.0471    0.0029   -0.6516 C   0  0  0  0  0  4           0  0  0
    0.0000    0.0000    0.0000 C   0  0  0  0  0  4           0  0  0
   -2.1161    0.0199    0.7323 C   0  0  0  0  0  4           0  0  0
   -0.1225    1.3716    3.0300 C   0  0  0  0  0  4           0  0  0
   -0.3912    2.4829    2.2185 C   0  0  0  0  0  4           0  0  0
    0.3043    1.5821    4.3490 C   0  0  0  0  0  4           0  0  0
   -0.2282    3.7778    2.7141 C   0  0  0  0  0  4           0  0  0
    0.4675    2.8777    4.8423 C   0  0  0  0  0  4           0  0  0
    0.2010    3.9747    4.0251 C   0  0  0  0  0  4           0  0  0
   -3.6609   -1.3737    2.0415 C   0  0  0  0  0  4           0  0  0
   -0.3165   -0.0182    2.5059 C   0  0  0  0  0  4           0  0  0
    1.4870    0.0000    0.0000 C   0  0  0  0  0  4           0  0  0
   -3.2396    0.0279    1.7027 C   0  0  0  0  0  4           0  0  0
    2.0677    0.9977   -0.9977 C   0  0  0  0  0  4           0  0  0
    3.5956    1.0392   -1.0392 C   0  0  0  0  0  4           0  0  0
    4.2170    1.4182    0.2969 C   0  0  0  0  0  4           0  0  0
  1  6  1  0     0  0
  2 15  2  0     0  0
  3 15  1  0     0  0
  4  7  1  0     0  0
  4  8  1  0     0  0
  4 16  1  0     0  0
  5  6  1  0     0  0
  5  7  2  0     0  0
  6  8  2  0     0  0
  7 17  1  0     0  0
  8 18  1  0     0  0
  9 10  2  0     0  0
  9 11  1  0     0  0
  9 16  1  0     0  0
 10 12  1  0     0  0
 11 13  2  0     0  0
 12 14  2  0     0  0
 13 14  1  0     0  0
 15 18  1  0     0  0
 17 19  1  0     0  0
 19 20  1  0     0  0
 20 21  1  0     0  0
M  END
> <standard_type>
pIC50

> <# Confs.>
25

> <canonical_smiles>
CCCCC1=NC(Cl)=C(CC(O)=O)N1CC2=CC=CC=C2

> <standard_relation>
=

> <Publication_ID>
nan

> <predicted_activity_value>
5.0

> <actual_activity_value>
3.8239087409443187

> <Compound>
25

> <standard_units>
nM

> hash
1023660401049005096

$$$$
25_
XXILIB    08252103513D 0   0.00000     0.00000

 21 22  0     1  0            999 V2000
   -3.3323   -0.0164   -1.7737 Cl  0  0  0  0  0  1           0  0  0
   -3.1894   -2.0263    2.9642 O   0  0  0  0  0  2           0  0  0
   -4.6356   -1.8422    1.2215 O   0  0  0  0  0  2           0  0  0
   -0.7894    0.0000    1.1322 N   0  0  0  0  0  3           0  0  0
   -0.7457   -0.0035   -1.0847 N   0  0  0  0  0  3           0  0  0
   -2.0471    0.0029   -0.6516 C   0  0  0  0  0  4           0  0  0
    0.0000    0.0000    0.0000 C   0  0  0  0  0  4           0  0  0
   -2.1161    0.0199    0.7323 C   0  0  0  0  0  4           0  0  0
   -0.1225    1.3716    3.0300 C   0  0  0  0  0  4           0  0  0
   -0.3912    2.4829    2.2185 C   0  0  0  0  0  4           0  0  0
    0.3043    1.5821    4.3490 C   0  0  0  0  0  4           0  0  0
   -0.2282    3.7778    2.7141 C   0  0  0  0  0  4           0  0  0
    0.4675    2.8777    4.8423 C   0  0  0  0  0  4           0  0  0
    0.2010    3.9747    4.0251 C   0  0  0  0  0  4           0  0  0
   -3.6609   -1.3737    2.0415 C   0  0  0  0  0  4           0  0  0
   -0.3165   -0.0182    2.5059 C   0  0  0  0  0  4           0  0  0
    1.4870    0.0000    0.0000 C   0  0  0  0  0  4           0  0  0
   -3.2396    0.0279    1.7027 C   0  0  0  0  0  4           0  0  0
    2.0677   -1.4109    0.0000 C   0  0  0  0  0  4           0  0  0
    3.5956   -1.4697    0.0000 C   0  0  0  0  0  4           0  0  0
    4.2170   -0.7929    1.2128 C   0  0  0  0  0  4           0  0  0
  1  6  1  0     0  0
  2 15  2  0     0  0
  3 15  1  0     0  0
  4  7  1  0     0  0
  4  8  1  0     0  0
  4 16  1  0     0  0
  5  6  1  0     0  0
  5  7  2  0     0  0
  6  8  2  0     0  0
  7 17  1  0     0  0
  8 18  1  0     0  0
  9 10  2  0     0  0
  9 11  1  0     0  0
  9 16  1  0     0  0
 10 12  1  0     0  0
 11 13  2  0     0  0
 12 14  2  0     0  0
 13 14  1  0     0  0
 15 18  1  0     0  0
 17 19  1  0     0  0
 19 20  1  0     0  0
 20 21  1  0     0  0
M  END
> <standard_type>
pIC50

> <# Confs.>
25

> <canonical_smiles>
CCCCC1=NC(Cl)=C(CC(O)=O)N1CC2=CC=CC=C2

> <standard_relation>
=

> <Publication_ID>
nan

> <predicted_activity_value>
5.0

> <actual_activity_value>
3.8239087409443187

> <Compound>
25

> <standard_units>
nM

> hash
1023660401049005096

$$$$
25_
XXILIB    08252103513D 0   0.00000     0.00000

 21 22  0     1  0            999 V2000
   -3.3323   -0.0164   -1.7737 Cl  0  0  0  0  0  1           0  0  0
   -3.6351   -1.8419    3.1727 O   0  0  0  0  0  2           0  0  0
   -4.0894   -2.0700    0.9582 O   0  0  0  0  0  2           0  0  0
   -0.7894    0.0000    1.1322 N   0  0  0  0  0  3           0  0  0
   -0.7457   -0.0035   -1.0847 N   0  0  0  0  0  3           0  0  0
   -2.0471    0.0029   -0.6516 C   0  0  0  0  0  4           0  0  0
    0.0000    0.0000    0.0000 C   0  0  0  0  0  4           0  0  0
   -2.1161    0.0199    0.7323 C   0  0  0  0  0  4           0  0  0
   -0.1225    1.3716    3.0300 C   0  0  0  0  0  4           0  0  0
   -0.5823    1.7219    4.3073 C   0  0  0  0  0  4           0  0  0
    0.5464    2.3353    2.2619 C   0  0  0  0  0  4           0  0  0
   -0.3842    3.0121    4.8023 C   0  0  0  0  0  4           0  0  0
    0.7427    3.6252    2.7583 C   0  0  0  0  0  4           0  0  0
    0.2778    3.9629    4.0280 C   0  0  0  0  0  4           0  0  0
   -3.6609   -1.3737    2.0415 C   0  0  0  0  0  4           0  0  0
   -0.3165   -0.0182    2.5059 C   0  0  0  0  0  4           0  0  0
    1.4870    0.0000    0.0000 C   0  0  0  0  0  4           0  0  0
   -3.2396    0.0279    1.7027 C   0  0  0  0  0  4           0  0  0
    2.0677   -0.9977   -0.9977 C   0  0  0  0  0  4           0  0  0
    1.6668   -2.4521   -0.7490 C   0  0  0  0  0  4           0  0  0
    2.1050   -2.9652    0.6146 C   0  0  0  0  0  4           0  0  0
  1  6  1  0     0  0
  2 15  2  0     0  0
  3 15  1  0     0  0
  4  7  1  0     0  0
  4  8  1  0     0  0
  4 16  1  0     0  0
  5  6  1  0     0  0
  5  7  2  0     0  0
  6  8  2  0     0  0
  7 17  1  0     0  0
  8 18  1  0     0  0
  9 10  2  0     0  0
  9 11  1  0     0  0
  9 16  1  0     0  0
 10 12  1  0     0  0
 11 13  2  0     0  0
 12 14  2  0     0  0
 13 14  1  0     0  0
 15 18  1  0     0  0
 17 19  1  0     0  0
 19 20  1  0     0  0
 20 21  1  0     0  0
M  END
> <standard_type>
pIC50

> <# Confs.>
25

> <canonical_smiles>
CCCCC1=NC(Cl)=C(CC(O)=O)N1CC2=CC=CC=C2

> <standard_relation>
=

> <Publication_ID>
nan

> <predicted_activity_value>
5.0

> <actual_activity_value>
3.8239087409443187

> <Compound>
25

> <standard_units>
nM

> hash
1023660401049005096

$$$$
25_
XXILIB    08252103513D 0   0.00000     0.00000

 21 22  0     1  0            999 V2000
   -3.3323   -0.0164   -1.7737 Cl  0  0  0  0  0  1           0  0  0
   -3.1364    2.0628    2.9917 O   0  0  0  0  0  2           0  0  0
   -4.5673    1.9492    1.2304 O   0  0  0  0  0  2           0  0  0
   -0.7894   -0.0000    1.1322 N   0  0  0  0  0  3           0  0  0
   -0.7457   -0.0035   -1.0847 N   0  0  0  0  0  3           0  0  0
   -2.0471    0.0029   -0.6516 C   0  0  0  0  0  4           0  0  0
    0.0000    0.0000   -0.0000 C   0  0  0  0  0  4           0  0  0
   -2.1161    0.0199    0.7323 C   0  0  0  0  0  4           0  0  0
   -0.1581   -1.4216    3.0052 C   0  0  0  0  0  4           0  0  0
    0.4614   -2.3953    2.2090 C   0  0  0  0  0  4           0  0  0
   -0.6023   -1.7758    4.2871 C   0  0  0  0  0  4           0  0  0
    0.6254   -3.6983    2.6827 C   0  0  0  0  0  4           0  0  0
   -0.4380   -3.0794    4.7587 C   0  0  0  0  0  4           0  0  0
    0.1758   -4.0397    3.9567 C   0  0  0  0  0  4           0  0  0
   -3.6245    1.4352    2.0604 C   0  0  0  0  0  4           0  0  0
   -0.3165   -0.0182    2.5059 C   0  0  0  0  0  4           0  0  0
    1.4870   -0.0000    0.0000 C   0  0  0  0  0  4           0  0  0
   -3.2396    0.0279    1.7027 C   0  0  0  0  0  4           0  0  0
    2.0677    0.9977   -0.9977 C   0  0  0  0  0  4           0  0  0
    1.6668    2.4521   -0.7490 C   0  0  0  0  0  4           0  0  0
    2.2647    3.4157   -1.7633 C   0  0  0  0  0  4           0  0  0
  1  6  1  0     0  0
  2 15  2  0     0  0
  3 15  1  0     0  0
  4  7  1  0     0  0
  4  8  1  0     0  0
  4 16  1  0     0  0
  5  6  1  0     0  0
  5  7  2  0     0  0
  6  8  2  0     0  0
  7 17  1  0     0  0
  8 18  1  0     0  0
  9 10  2  0     0  0
  9 11  1  0     0  0
  9 16  1  0     0  0
 10 12  1  0     0  0
 11 13  2  0     0  0
 12 14  2  0     0  0
 13 14  1  0     0  0
 15 18  1  0     0  0
 17 19  1  0     0  0
 19 20  1  0     0  0
 20 21  1  0     0  0
M  END
> <standard_type>
pIC50

> <# Confs.>
25

> <canonical_smiles>
CCCCC1=NC(Cl)=C(CC(O)=O)N1CC2=CC=CC=C2

> <standard_relation>
=

> <Publication_ID>
nan

> <predicted_activity_value>
5.0

> <actual_activity_value>
3.8239087409443187

> <Compound>
25

> <standard_units>
nM

> hash
1023660401049005096

$$$$
25_
XXILIB    08252103513D 0   0.00000     0.00000

 21 22  0     1  0            999 V2000
   -3.3323   -0.0164   -1.7737 Cl  0  0  0  0  0  1           0  0  0
   -3.5868    1.8872    3.1978 O   0  0  0  0  0  2           0  0  0
   -4.0091    2.1649    0.9826 O   0  0  0  0  0  2           0  0  0
   -0.7894   -0.0000    1.1322 N   0  0  0  0  0  3           0  0  0
   -0.7457   -0.0035   -1.0847 N   0  0  0  0  0  3           0  0  0
   -2.0471    0.0029   -0.6516 C   0  0  0  0  0  4           0  0  0
    0.0000    0.0000   -0.0000 C   0  0  0  0  0  4           0  0  0
   -2.1161    0.0199    0.7323 C   0  0  0  0  0  4           0  0  0
   -0.1581   -1.4216    3.0052 C   0  0  0  0  0  4           0  0  0
   -0.4549   -2.5111    2.1741 C   0  0  0  0  0  4           0  0  0
    0.3157   -1.6669    4.3019 C   0  0  0  0  0  4           0  0  0
   -0.2889   -3.8188    2.6341 C   0  0  0  0  0  4           0  0  0
    0.4802   -2.9752    4.7602 C   0  0  0  0  0  4           0  0  0
    0.1782   -4.0502    3.9264 C   0  0  0  0  0  4           0  0  0
   -3.6245    1.4352    2.0604 C   0  0  0  0  0  4           0  0  0
   -0.3165   -0.0182    2.5059 C   0  0  0  0  0  4           0  0  0
    1.4870    0.0000    0.0000 C   0  0  0  0  0  4           0  0  0
   -3.2396    0.0279    1.7027 C   0  0  0  0  0  4           0  0  0
    2.0677   -1.4109    0.0000 C   0  0  0  0  0  4           0  0  0
    3.5956   -1.4697    0.0000 C   0  0  0  0  0  4           0  0  0
    4.1362   -2.8919    0.0000 C   0  0  0  0  0  4           0  0  0
  1  6  1  0     0  0
  2 15  2  0     0  0
  3 15  1  0     0  0
  4  7  1  0     0  0
  4  8  1  0     0  0
  4 16  1  0     0  0
  5  6  1  0     0  0
  5  7  2  0     0  0
  6  8  2  0     0  0
  7 17  1  0     0  0
  8 18  1  0     0  0
  9 10  2  0     0  0
  9 11  1  0     0  0
  9 16  1  0     0  0
 10 12  1  0     0  0
 11 13  2  0     0  0
 12 14  2  0     0  0
 13 14  1  0     0  0
 15 18  1  0     0  0
 17 19  1  0     0  0
 19 20  1  0     0  0
 20 21  1  0     0  0
M  END
> <standard_type>
pIC50

> <# Confs.>
25

> <canonical_smiles>
CCCCC1=NC(Cl)=C(CC(O)=O)N1CC2=CC=CC=C2

> <standard_relation>
=

> <Publication_ID>
nan

> <predicted_activity_value>
5.0

> <actual_activity_value>
3.8239087409443187

> <Compound>
25

> <standard_units>
nM

> hash
1023660401049005096

$$$$
25_
XXILIB    08252103513D 0   0.00000     0.00000

 21 22  0     1  0            999 V2000
   -3.3323   -0.0164   -1.7737 Cl  0  0  0  0  0  1           0  0  0
   -3.6351   -1.8419    3.1727 O   0  0  0  0  0  2           0  0  0
   -4.0894   -2.0700    0.9582 O   0  0  0  0  0  2           0  0  0
   -0.7894    0.0000    1.1322 N   0  0  0  0  0  3           0  0  0
   -0.7457   -0.0035   -1.0847 N   0  0  0  0  0  3           0  0  0
   -2.0471    0.0029   -0.6516 C   0  0  0  0  0  4           0  0  0
    0.0000    0.0000    0.0000 C   0  0  0  0  0  4           0  0  0
   -2.1161    0.0199    0.7323 C   0  0  0  0  0  4           0  0  0
   -0.1225    1.3716    3.0300 C   0  0  0  0  0  4           0  0  0
   -0.5823    1.7219    4.3073 C   0  0  0  0  0  4           0  0  0
    0.5464    2.3353    2.2619 C   0  0  0  0  0  4           0  0  0
   -0.3842    3.0121    4.8023 C   0  0  0  0  0  4           0  0  0
    0.7427    3.6252    2.7583 C   0  0  0  0  0  4           0  0  0
    0.2778    3.9629    4.0280 C   0  0  0  0  0  4           0  0  0
   -3.6609   -1.3737    2.0415 C   0  0  0  0  0  4           0  0  0
   -0.3165   -0.0182    2.5059 C   0  0  0  0  0  4           0  0  0
    1.4870    0.0000    0.0000 C   0  0  0  0  0  4           0  0  0
   -3.2396    0.0279    1.7027 C   0  0  0  0  0  4           0  0  0
    2.0677    0.9977   -0.9977 C   0  0  0  0  0  4           0  0  0
    3.5956    1.0392   -1.0392 C   0  0  0  0  0  4           0  0  0
    4.1362    2.0449   -2.0449 C   0  0  0  0  0  4           0  0  0
  1  6  1  0     0  0
  2 15  2  0     0  0
  3 15  1  0     0  0
  4  7  1  0     0  0
  4  8  1  0     0  0
  4 16  1  0     0  0
  5  6  1  0     0  0
  5  7  2  0     0  0
  6  8  2  0     0  0
  7 17  1  0     0  0
  8 18  1  0     0  0
  9 10  2  0     0  0
  9 11  1  0     0  0
  9 16  1  0     0  0
 10 12  1  0     0  0
 11 13  2  0     0  0
 12 14  2  0     0  0
 13 14  1  0     0  0
 15 18  1  0     0  0
 17 19  1  0     0  0
 19 20  1  0     0  0
 20 21  1  0     0  0
M  END
> <standard_type>
pIC50

> <# Confs.>
25

> <canonical_smiles>
CCCCC1=NC(Cl)=C(CC(O)=O)N1CC2=CC=CC=C2

> <standard_relation>
=

> <Publication_ID>
nan

> <predicted_activity_value>
5.0

> <actual_activity_value>
3.8239087409443187

> <Compound>
25

> <standard_units>
nM

> hash
1023660401049005096

$$$$
25_
XXILIB    08252103513D 0   0.00000     0.00000

 21 22  0     1  0            999 V2000
   -3.3323   -0.0164   -1.7737 Cl  0  0  0  0  0  1           0  0  0
   -3.5868    1.8872    3.1978 O   0  0  0  0  0  2           0  0  0
   -4.0091    2.1649    0.9826 O   0  0  0  0  0  2           0  0  0
   -0.7894   -0.0000    1.1322 N   0  0  0  0  0  3           0  0  0
   -0.7457   -0.0035   -1.0847 N   0  0  0  0  0  3           0  0  0
   -2.0471    0.0029   -0.6516 C   0  0  0  0  0  4           0  0  0
    0.0000    0.0000   -0.0000 C   0  0  0  0  0  4           0  0  0
   -2.1161    0.0199    0.7323 C   0  0  0  0  0  4           0  0  0
   -0.1581   -1.4216    3.0052 C   0  0  0  0  0  4           0  0  0
    0.4614   -2.3953    2.2090 C   0  0  0  0  0  4           0  0  0
   -0.6023   -1.7758    4.2871 C   0  0  0  0  0  4           0  0  0
    0.6254   -3.6983    2.6827 C   0  0  0  0  0  4           0  0  0
   -0.4380   -3.0794    4.7587 C   0  0  0  0  0  4           0  0  0
    0.1758   -4.0397    3.9567 C   0  0  0  0  0  4           0  0  0
   -3.6245    1.4352    2.0604 C   0  0  0  0  0  4           0  0  0
   -0.3165   -0.0182    2.5059 C   0  0  0  0  0  4           0  0  0
    1.4870   -0.0000    0.0000 C   0  0  0  0  0  4           0  0  0
   -3.2396    0.0279    1.7027 C   0  0  0  0  0  4           0  0  0
    2.0677    0.9977   -0.9977 C   0  0  0  0  0  4           0  0  0
    1.6668    2.4521   -0.7490 C   0  0  0  0  0  4           0  0  0
    2.1050    2.9652    0.6146 C   0  0  0  0  0  4           0  0  0
  1  6  1  0     0  0
  2 15  2  0     0  0
  3 15  1  0     0  0
  4  7  1  0     0  0
  4  8  1  0     0  0
  4 16  1  0     0  0
  5  6  1  0     0  0
  5  7  2  0     0  0
  6  8  2  0     0  0
  7 17  1  0     0  0
  8 18  1  0     0  0
  9 10  2  0     0  0
  9 11  1  0     0  0
  9 16  1  0     0  0
 10 12  1  0     0  0
 11 13  2  0     0  0
 12 14  2  0     0  0
 13 14  1  0     0  0
 15 18  1  0     0  0
 17 19  1  0     0  0
 19 20  1  0     0  0
 20 21  1  0     0  0
M  END
> <standard_type>
pIC50

> <# Confs.>
25

> <canonical_smiles>
CCCCC1=NC(Cl)=C(CC(O)=O)N1CC2=CC=CC=C2

> <standard_relation>
=

> <Publication_ID>
nan

> <predicted_activity_value>
5.0

> <actual_activity_value>
3.8239087409443187

> <Compound>
25

> <standard_units>
nM

> hash
1023660401049005096

$$$$
25_
XXILIB    08252103513D 0   0.00000     0.00000

 21 22  0     1  0            999 V2000
   -3.3323   -0.0164   -1.7737 Cl  0  0  0  0  0  1           0  0  0
   -3.1894   -2.0263    2.9642 O   0  0  0  0  0  2           0  0  0
   -4.6356   -1.8422    1.2215 O   0  0  0  0  0  2           0  0  0
   -0.7894    0.0000    1.1322 N   0  0  0  0  0  3           0  0  0
   -0.7457   -0.0035   -1.0847 N   0  0  0  0  0  3           0  0  0
   -2.0471    0.0029   -0.6516 C   0  0  0  0  0  4           0  0  0
    0.0000    0.0000    0.0000 C   0  0  0  0  0  4           0  0  0
   -2.1161    0.0199    0.7323 C   0  0  0  0  0  4           0  0  0
   -0.1225    1.3716    3.0300 C   0  0  0  0  0  4           0  0  0
   -0.5823    1.7219    4.3073 C   0  0  0  0  0  4           0  0  0
    0.5464    2.3353    2.2619 C   0  0  0  0  0  4           0  0  0
   -0.3842    3.0121    4.8023 C   0  0  0  0  0  4           0  0  0
    0.7427    3.6252    2.7583 C   0  0  0  0  0  4           0  0  0
    0.2778    3.9629    4.0280 C   0  0  0  0  0  4           0  0  0
   -3.6609   -1.3737    2.0415 C   0  0  0  0  0  4           0  0  0
   -0.3165   -0.0182    2.5059 C   0  0  0  0  0  4           0  0  0
    1.4870    0.0000    0.0000 C   0  0  0  0  0  4           0  0  0
   -3.2396    0.0279    1.7027 C   0  0  0  0  0  4           0  0  0
    2.0677   -0.9977   -0.9977 C   0  0  0  0  0  4           0  0  0
    1.6668   -2.4521   -0.7490 C   0  0  0  0  0  4           0  0  0
    2.2647   -3.4157   -1.7633 C   0  0  0  0  0  4           0  0  0
  1  6  1  0     0  0
  2 15  2  0     0  0
  3 15  1  0     0  0
  4  7  1  0     0  0
  4  8  1  0     0  0
  4 16  1  0     0  0
  5  6  1  0     0  0
  5  7  2  0     0  0
  6  8  2  0     0  0
  7 17  1  0     0  0
  8 18  1  0     0  0
  9 10  2  0     0  0
  9 11  1  0     0  0
  9 16  1  0     0  0
 10 12  1  0     0  0
 11 13  2  0     0  0
 12 14  2  0     0  0
 13 14  1  0     0  0
 15 18  1  0     0  0
 17 19  1  0     0  0
 19 20  1  0     0  0
 20 21  1  0     0  0
M  END
> <standard_type>
pIC50

> <# Confs.>
25

> <canonical_smiles>
CCCCC1=NC(Cl)=C(CC(O)=O)N1CC2=CC=CC=C2

> <standard_relation>
=

> <Publication_ID>
nan

> <predicted_activity_value>
5.0

> <actual_activity_value>
3.8239087409443187

> <Compound>
25

> <standard_units>
nM

> hash
1023660401049005096

$$$$
25_
XXILIB    08252103513D 0   0.00000     0.00000

 21 22  0     1  0            999 V2000
   -3.3323   -0.0164   -1.7737 Cl  0  0  0  0  0  1           0  0  0
   -3.6351   -1.8419    3.1727 O   0  0  0  0  0  2           0  0  0
   -4.0894   -2.0700    0.9582 O   0  0  0  0  0  2           0  0  0
   -0.7894    0.0000    1.1322 N   0  0  0  0  0  3           0  0  0
   -0.7457   -0.0035   -1.0847 N   0  0  0  0  0  3           0  0  0
   -2.0471    0.0029   -0.6516 C   0  0  0  0  0  4           0  0  0
    0.0000    0.0000    0.0000 C   0  0  0  0  0  4           0  0  0
   -2.1161    0.0199    0.7323 C   0  0  0  0  0  4           0  0  0
   -0.1225    1.3716    3.0300 C   0  0  0  0  0  4           0  0  0
   -0.5823    1.7219    4.3073 C   0  0  0  0  0  4           0  0  0
    0.5464    2.3353    2.2619 C   0  0  0  0  0  4           0  0  0
   -0.3842    3.0121    4.8023 C   0  0  0  0  0  4           0  0  0
    0.7427    3.6252    2.7583 C   0  0  0  0  0  4           0  0  0
    0.2778    3.9629    4.0280 C   0  0  0  0  0  4           0  0  0
   -3.6609   -1.3737    2.0415 C   0  0  0  0  0  4           0  0  0
   -0.3165   -0.0182    2.5059 C   0  0  0  0  0  4           0  0  0
    1.4870    0.0000    0.0000 C   0  0  0  0  0  4           0  0  0
   -3.2396    0.0279    1.7027 C   0  0  0  0  0  4           0  0  0
    2.0677   -0.9977   -0.9977 C   0  0  0  0  0  4           0  0  0
    3.5956   -1.0392   -1.0392 C   0  0  0  0  0  4           0  0  0
    4.2170    0.2969   -1.4182 C   0  0  0  0  0  4           0  0  0
  1  6  1  0     0  0
  2 15  2  0     0  0
  3 15  1  0     0  0
  4  7  1  0     0  0
  4  8  1  0     0  0
  4 16  1  0     0  0
  5  6  1  0     0  0
  5  7  2  0     0  0
  6  8  2  0     0  0
  7 17  1  0     0  0
  8 18  1  0     0  0
  9 10  2  0     0  0
  9 11  1  0     0  0
  9 16  1  0     0  0
 10 12  1  0     0  0
 11 13  2  0     0  0
 12 14  2  0     0  0
 13 14  1  0     0  0
 15 18  1  0     0  0
 17 19  1  0     0  0
 19 20  1  0     0  0
 20 21  1  0     0  0
M  END
> <standard_type>
pIC50

> <# Confs.>
25

> <canonical_smiles>
CCCCC1=NC(Cl)=C(CC(O)=O)N1CC2=CC=CC=C2

> <standard_relation>
=

> <Publication_ID>
nan

> <predicted_activity_value>
5.0

> <actual_activity_value>
3.8239087409443187

> <Compound>
25

> <standard_units>
nM

> hash
1023660401049005096

$$$$
25_
XXILIB    08252103513D 0   0.00000     0.00000

 21 22  0     1  0            999 V2000
   -3.3323   -0.0164   -1.7737 Cl  0  0  0  0  0  1           0  0  0
   -3.1894   -2.0263    2.9642 O   0  0  0  0  0  2           0  0  0
   -4.6356   -1.8422    1.2215 O   0  0  0  0  0  2           0  0  0
   -0.7894    0.0000    1.1322 N   0  0  0  0  0  3           0  0  0
   -0.7457   -0.0035   -1.0847 N   0  0  0  0  0  3           0  0  0
   -2.0471    0.0029   -0.6516 C   0  0  0  0  0  4           0  0  0
    0.0000    0.0000    0.0000 C   0  0  0  0  0  4           0  0  0
   -2.1161    0.0199    0.7323 C   0  0  0  0  0  4           0  0  0
   -0.1225    1.3716    3.0300 C   0  0  0  0  0  4           0  0  0
   -0.5823    1.7219    4.3073 C   0  0  0  0  0  4           0  0  0
    0.5464    2.3353    2.2619 C   0  0  0  0  0  4           0  0  0
   -0.3842    3.0121    4.8023 C   0  0  0  0  0  4           0  0  0
    0.7427    3.6252    2.7583 C   0  0  0  0  0  4           0  0  0
    0.2778    3.9629    4.0280 C   0  0  0  0  0  4           0  0  0
   -3.6609   -1.3737    2.0415 C   0  0  0  0  0  4           0  0  0
   -0.3165   -0.0182    2.5059 C   0  0  0  0  0  4           0  0  0
    1.4870    0.0000    0.0000 C   0  0  0  0  0  4           0  0  0
   -3.2396    0.0279    1.7027 C   0  0  0  0  0  4           0  0  0
    2.0677   -0.9977   -0.9977 C   0  0  0  0  0  4           0  0  0
    3.5956   -1.0392   -1.0392 C   0  0  0  0  0  4           0  0  0
    4.1362   -2.0449   -2.0449 C   0  0  0  0  0  4           0  0  0
  1  6  1  0     0  0
  2 15  2  0     0  0
  3 15  1  0     0  0
  4  7  1  0     0  0
  4  8  1  0     0  0
  4 16  1  0     0  0
  5  6  1  0     0  0
  5  7  2  0     0  0
  6  8  2  0     0  0
  7 17  1  0     0  0
  8 18  1  0     0  0
  9 10  2  0     0  0
  9 11  1  0     0  0
  9 16  1  0     0  0
 10 12  1  0     0  0
 11 13  2  0     0  0
 12 14  2  0     0  0
 13 14  1  0     0  0
 15 18  1  0     0  0
 17 19  1  0     0  0
 19 20  1  0     0  0
 20 21  1  0     0  0
M  END
> <standard_type>
pIC50

> <# Confs.>
25

> <canonical_smiles>
CCCCC1=NC(Cl)=C(CC(O)=O)N1CC2=CC=CC=C2

> <standard_relation>
=

> <Publication_ID>
nan

> <predicted_activity_value>
5.0

> <actual_activity_value>
3.8239087409443187

> <Compound>
25

> <standard_units>
nM

> hash
1023660401049005096

$$$$
25_
XXILIB    08252103513D 0   0.00000     0.00000

 21 22  0     1  0            999 V2000
   -3.3323   -0.0164   -1.7737 Cl  0  0  0  0  0  1           0  0  0
   -3.1364    2.0628    2.9917 O   0  0  0  0  0  2           0  0  0
   -4.5673    1.9492    1.2304 O   0  0  0  0  0  2           0  0  0
   -0.7894   -0.0000    1.1322 N   0  0  0  0  0  3           0  0  0
   -0.7457   -0.0035   -1.0847 N   0  0  0  0  0  3           0  0  0
   -2.0471    0.0029   -0.6516 C   0  0  0  0  0  4           0  0  0
    0.0000    0.0000   -0.0000 C   0  0  0  0  0  4           0  0  0
   -2.1161    0.0199    0.7323 C   0  0  0  0  0  4           0  0  0
   -0.1581   -1.4216    3.0052 C   0  0  0  0  0  4           0  0  0
   -0.4549   -2.5111    2.1741 C   0  0  0  0  0  4           0  0  0
    0.3157   -1.6669    4.3019 C   0  0  0  0  0  4           0  0  0
   -0.2889   -3.8188    2.6341 C   0  0  0  0  0  4           0  0  0
    0.4802   -2.9752    4.7602 C   0  0  0  0  0  4           0  0  0
    0.1782   -4.0502    3.9264 C   0  0  0  0  0  4           0  0  0
   -3.6245    1.4352    2.0604 C   0  0  0  0  0  4           0  0  0
   -0.3165   -0.0182    2.5059 C   0  0  0  0  0  4           0  0  0
    1.4870    0.0000    0.0000 C   0  0  0  0  0  4           0  0  0
   -3.2396    0.0279    1.7027 C   0  0  0  0  0  4           0  0  0
    2.0677    0.0000   -1.4109 C   0  0  0  0  0  4           0  0  0
    3.5956    0.0000   -1.4697 C   0  0  0  0  0  4           0  0  0
    4.2170   -1.2128   -0.7929 C   0  0  0  0  0  4           0  0  0
  1  6  1  0     0  0
  2 15  2  0     0  0
  3 15  1  0     0  0
  4  7  1  0     0  0
  4  8  1  0     0  0
  4 16  1  0     0  0
  5  6  1  0     0  0
  5  7  2  0     0  0
  6  8  2  0     0  0
  7 17  1  0     0  0
  8 18  1  0     0  0
  9 10  2  0     0  0
  9 11  1  0     0  0
  9 16  1  0     0  0
 10 12  1  0     0  0
 11 13  2  0     0  0
 12 14  2  0     0  0
 13 14  1  0     0  0
 15 18  1  0     0  0
 17 19  1  0     0  0
 19 20  1  0     0  0
 20 21  1  0     0  0
M  END
> <standard_type>
pIC50

> <# Confs.>
25

> <canonical_smiles>
CCCCC1=NC(Cl)=C(CC(O)=O)N1CC2=CC=CC=C2

> <standard_relation>
=

> <Publication_ID>
nan

> <predicted_activity_value>
5.0

> <actual_activity_value>
3.8239087409443187

> <Compound>
25

> <standard_units>
nM

> hash
1023660401049005096

$$$$
25_
XXILIB    08252103513D 0   0.00000     0.00000

 21 22  0     1  0            999 V2000
   -3.3323   -0.0164   -1.7737 Cl  0  0  0  0  0  1           0  0  0
   -3.1364    2.0628    2.9917 O   0  0  0  0  0  2           0  0  0
   -4.5673    1.9492    1.2304 O   0  0  0  0  0  2           0  0  0
   -0.7894   -0.0000    1.1322 N   0  0  0  0  0  3           0  0  0
   -0.7457   -0.0035   -1.0847 N   0  0  0  0  0  3           0  0  0
   -2.0471    0.0029   -0.6516 C   0  0  0  0  0  4           0  0  0
    0.0000    0.0000   -0.0000 C   0  0  0  0  0  4           0  0  0
   -2.1161    0.0199    0.7323 C   0  0  0  0  0  4           0  0  0
   -0.1581   -1.4216    3.0052 C   0  0  0  0  0  4           0  0  0
    0.4614   -2.3953    2.2090 C   0  0  0  0  0  4           0  0  0
   -0.6023   -1.7758    4.2871 C   0  0  0  0  0  4           0  0  0
    0.6254   -3.6983    2.6827 C   0  0  0  0  0  4           0  0  0
   -0.4380   -3.0794    4.7587 C   0  0  0  0  0  4           0  0  0
    0.1758   -4.0397    3.9567 C   0  0  0  0  0  4           0  0  0
   -3.6245    1.4352    2.0604 C   0  0  0  0  0  4           0  0  0
   -0.3165   -0.0182    2.5059 C   0  0  0  0  0  4           0  0  0
    1.4870    0.0000    0.0000 C   0  0  0  0  0  4           0  0  0
   -3.2396    0.0279    1.7027 C   0  0  0  0  0  4           0  0  0
    2.0677    0.9977   -0.9977 C   0  0  0  0  0  4           0  0  0
    3.5956    1.0392   -1.0392 C   0  0  0  0  0  4           0  0  0
    4.2170    1.4182    0.2969 C   0  0  0  0  0  4           0  0  0
  1  6  1  0     0  0
  2 15  2  0     0  0
  3 15  1  0     0  0
  4  7  1  0     0  0
  4  8  1  0     0  0
  4 16  1  0     0  0
  5  6  1  0     0  0
  5  7  2  0     0  0
  6  8  2  0     0  0
  7 17  1  0     0  0
  8 18  1  0     0  0
  9 10  2  0     0  0
  9 11  1  0     0  0
  9 16  1  0     0  0
 10 12  1  0     0  0
 11 13  2  0     0  0
 12 14  2  0     0  0
 13 14  1  0     0  0
 15 18  1  0     0  0
 17 19  1  0     0  0
 19 20  1  0     0  0
 20 21  1  0     0  0
M  END
> <standard_type>
pIC50

> <# Confs.>
25

> <canonical_smiles>
CCCCC1=NC(Cl)=C(CC(O)=O)N1CC2=CC=CC=C2

> <standard_relation>
=

> <Publication_ID>
nan

> <predicted_activity_value>
5.0

> <actual_activity_value>
3.8239087409443187

> <Compound>
25

> <standard_units>
nM

> hash
1023660401049005096

$$$$
25_
XXILIB    08252103513D 0   0.00000     0.00000

 21 22  0     1  0            999 V2000
   -3.3323   -0.0164   -1.7737 Cl  0  0  0  0  0  1           0  0  0
   -3.1364    2.0628    2.9917 O   0  0  0  0  0  2           0  0  0
   -4.5673    1.9492    1.2304 O   0  0  0  0  0  2           0  0  0
   -0.7894   -0.0000    1.1322 N   0  0  0  0  0  3           0  0  0
   -0.7457   -0.0035   -1.0847 N   0  0  0  0  0  3           0  0  0
   -2.0471    0.0029   -0.6516 C   0  0  0  0  0  4           0  0  0
    0.0000    0.0000   -0.0000 C   0  0  0  0  0  4           0  0  0
   -2.1161    0.0199    0.7323 C   0  0  0  0  0  4           0  0  0
   -0.1581   -1.4216    3.0052 C   0  0  0  0  0  4           0  0  0
    0.4614   -2.3953    2.2090 C   0  0  0  0  0  4           0  0  0
   -0.6023   -1.7758    4.2871 C   0  0  0  0  0  4           0  0  0
    0.6254   -3.6983    2.6827 C   0  0  0  0  0  4           0  0  0
   -0.4380   -3.0794    4.7587 C   0  0  0  0  0  4           0  0  0
    0.1758   -4.0397    3.9567 C   0  0  0  0  0  4           0  0  0
   -3.6245    1.4352    2.0604 C   0  0  0  0  0  4           0  0  0
   -0.3165   -0.0182    2.5059 C   0  0  0  0  0  4           0  0  0
    1.4870    0.0000    0.0000 C   0  0  0  0  0  4           0  0  0
   -3.2396    0.0279    1.7027 C   0  0  0  0  0  4           0  0  0
    2.0677   -0.9977   -0.9977 C   0  0  0  0  0  4           0  0  0
    3.5956   -1.0392   -1.0392 C   0  0  0  0  0  4           0  0  0
    4.2170   -1.4182    0.2969 C   0  0  0  0  0  4           0  0  0
  1  6  1  0     0  0
  2 15  2  0     0  0
  3 15  1  0     0  0
  4  7  1  0     0  0
  4  8  1  0     0  0
  4 16  1  0     0  0
  5  6  1  0     0  0
  5  7  2  0     0  0
  6  8  2  0     0  0
  7 17  1  0     0  0
  8 18  1  0     0  0
  9 10  2  0     0  0
  9 11  1  0     0  0
  9 16  1  0     0  0
 10 12  1  0     0  0
 11 13  2  0     0  0
 12 14  2  0     0  0
 13 14  1  0     0  0
 15 18  1  0     0  0
 17 19  1  0     0  0
 19 20  1  0     0  0
 20 21  1  0     0  0
M  END
> <standard_type>
pIC50

> <# Confs.>
25

> <canonical_smiles>
CCCCC1=NC(Cl)=C(CC(O)=O)N1CC2=CC=CC=C2

> <standard_relation>
=

> <Publication_ID>
nan

> <predicted_activity_value>
5.0

> <actual_activity_value>
3.8239087409443187

> <Compound>
25

> <standard_units>
nM

> hash
1023660401049005096

$$$$
25_
XXILIB    08252103513D 0   0.00000     0.00000

 21 22  0     1  0            999 V2000
   -3.3323   -0.0164   -1.7737 Cl  0  0  0  0  0  1           0  0  0
   -2.8638    2.2421    2.5798 O   0  0  0  0  0  2           0  0  0
   -4.9091    1.7277    1.7341 O   0  0  0  0  0  2           0  0  0
   -0.7894   -0.0000    1.1322 N   0  0  0  0  0  3           0  0  0
   -0.7457   -0.0035   -1.0847 N   0  0  0  0  0  3           0  0  0
   -2.0471    0.0029   -0.6516 C   0  0  0  0  0  4           0  0  0
    0.0000    0.0000   -0.0000 C   0  0  0  0  0  4           0  0  0
   -2.1161    0.0199    0.7323 C   0  0  0  0  0  4           0  0  0
   -0.1581   -1.4216    3.0052 C   0  0  0  0  0  4           0  0  0
   -0.4549   -2.5111    2.1741 C   0  0  0  0  0  4           0  0  0
    0.3157   -1.6669    4.3019 C   0  0  0  0  0  4           0  0  0
   -0.2889   -3.8188    2.6341 C   0  0  0  0  0  4           0  0  0
    0.4802   -2.9752    4.7602 C   0  0  0  0  0  4           0  0  0
    0.1782   -4.0502    3.9264 C   0  0  0  0  0  4           0  0  0
   -3.6245    1.4352    2.0604 C   0  0  0  0  0  4           0  0  0
   -0.3165   -0.0182    2.5059 C   0  0  0  0  0  4           0  0  0
    1.4870   -0.0000   -0.0000 C   0  0  0  0  0  4           0  0  0
   -3.2396    0.0279    1.7027 C   0  0  0  0  0  4           0  0  0
    2.0677    1.4109    0.0000 C   0  0  0  0  0  4           0  0  0
    1.6668    2.2635   -1.2042 C   0  0  0  0  0  4           0  0  0
    2.1050    1.6621   -2.5313 C   0  0  0  0  0  4           0  0  0
  1  6  1  0     0  0
  2 15  2  0     0  0
  3 15  1  0     0  0
  4  7  1  0     0  0
  4  8  1  0     0  0
  4 16  1  0     0  0
  5  6  1  0     0  0
  5  7  2  0     0  0
  6  8  2  0     0  0
  7 17  1  0     0  0
  8 18  1  0     0  0
  9 10  2  0     0  0
  9 11  1  0     0  0
  9 16  1  0     0  0
 10 12  1  0     0  0
 11 13  2  0     0  0
 12 14  2  0     0  0
 13 14  1  0     0  0
 15 18  1  0     0  0
 17 19  1  0     0  0
 19 20  1  0     0  0
 20 21  1  0     0  0
M  END
> <standard_type>
pIC50

> <# Confs.>
25

> <canonical_smiles>
CCCCC1=NC(Cl)=C(CC(O)=O)N1CC2=CC=CC=C2

> <standard_relation>
=

> <Publication_ID>
nan

> <predicted_activity_value>
5.0

> <actual_activity_value>
3.8239087409443187

> <Compound>
25

> <standard_units>
nM

> hash
1023660401049005096

$$$$
18_
XXILIB    08252103513D 0   0.00000     0.00000

 31 33  0     1  0            999 V2000
   -3.5602    0.0114   -1.4766 Cl  0  0  0  0  0  1           0  0  0
    3.8813   -5.2594   -3.2277 O   0  0  0  0  0  2           0  0  0
    0.5099   -0.6441   -5.0094 O   0  0  0  0  0  2           0  0  0
   -0.2086   -1.3273   -2.9248 O   0  0  0  0  0  2           0  0  0
    1.7942   -5.9307   -2.6490 O   0  0  0  0  0  2           0  0  0
    0.0000   -0.0000    0.0000 N   0  0  0  0  0  3           0  0  0
   -2.0836    0.0005    0.7718 N   0  0  0  0  0  3           0  0  0
   -2.0993    0.0105   -0.5980 C   0  0  0  0  0  4           0  0  0
   -0.8119    0.0000    1.1177 C   0  0  0  0  0  4           0  0  0
   -0.8166    0.0194   -1.1139 C   0  0  0  0  0  4           0  0  0
    3.5746   -5.3906    0.0336 C   0  0  0  0  0  4           0  0  0
    3.0352   -4.0248    0.0233 C   0  0  0  0  0  4           0  0  0
    3.5707   -6.2411   -1.0943 C   0  0  0  0  0  4           0  0  0
    1.9918   -1.3967    0.0000 C   0  0  0  0  0  4           0  0  0
    4.1048   -5.9112    1.2317 C   0  0  0  0  0  4           0  0  0
    3.5583   -3.0527   -0.8424 C   0  0  0  0  0  4           0  0  0
    1.9858   -3.6616    0.8803 C   0  0  0  0  0  4           0  0  0
    4.0698   -7.5511   -1.0168 C   0  0  0  0  0  4           0  0  0
    3.0442   -1.7530   -0.8522 C   0  0  0  0  0  4           0  0  0
    1.4716   -2.3619    0.8708 C   0  0  0  0  0  4           0  0  0
    4.5992   -7.2159    1.3077 C   0  0  0  0  0  4           0  0  0
    4.5781   -8.0358    0.1851 C   0  0  0  0  0  4           0  0  0
    3.1176   -5.7641   -2.4172 C   0  0  0  0  0  4           0  0  0
    0.2262   -1.5178   -4.2007 C   0  0  0  0  0  4           0  0  0
   -0.3373    0.0390   -2.5151 C   0  0  0  0  0  4           0  0  0
    1.4497    0.0000   -0.0000 C   0  0  0  0  0  4           0  0  0
   -0.3193   -0.0056    2.5204 C   0  0  0  0  0  4           0  0  0
   -1.0721   -1.0028    3.3951 C   0  0  0  0  0  4           0  0  0
   -0.5726   -1.0153    4.8377 C   0  0  0  0  0  4           0  0  0
    0.3445   -2.9856   -4.4804 C   0  0  0  0  0  4           0  0  0
   -1.3414   -2.0175    5.6828 C   0  0  0  0  0  4           0  0  0
  1  8  1  0     0  0
  2 23  2  0     0  0
  3 24  2  0     0  0
  4 24  1  0     0  0
  4 25  1  0     0  0
  5 23  1  0     0  0
  6  9  1  0     0  0
  6 10  1  0     0  0
  6 26  1  0     0  0
  7  8  1  0     0  0
  7  9  2  0     0  0
  8 10  2  0     0  0
  9 27  1  0     0  0
 10 25  1  0     0  0
 11 12  1  0     0  0
 11 13  1  0     0  0
 11 15  2  0     0  0
 12 16  2  0     0  0
 12 17  1  0     0  0
 13 18  2  0     0  0
 13 23  1  0     0  0
 14 19  2  0     0  0
 14 20  1  0     0  0
 14 26  1  0     0  0
 15 21  1  0     0  0
 16 19  1  0     0  0
 17 20  2  0     0  0
 18 22  1  0     0  0
 21 22  2  0     0  0
 24 30  1  0     0  0
 27 28  1  0     0  0
 28 29  1  0     0  0
 29 31  1  0     0  0
M  END
> <standard_type>
pIC50

> <# Confs.>
25

> <canonical_smiles>
CCCCC1=NC(Cl)=C(COC(C)=O)N1CC2=CC=C(C3=CC=CC=C3C(O)=O)C=C2

> <standard_relation>
=

> <Publication_ID>
nan

> <predicted_activity_value>
6.920818753952375

> <actual_activity_value>
5.47755576649368

> <Compound>
18

> <standard_units>
nM

> hash
17930109462890095984

$$$$
18_
XXILIB    08252103513D 0   0.00000     0.00000

 31 33  0     1  0            999 V2000
   -3.5602    0.0114   -1.4766 Cl  0  0  0  0  0  1           0  0  0
    1.3025    6.0466   -2.3445 O   0  0  0  0  0  2           0  0  0
    0.5144    0.7915   -4.9878 O   0  0  0  0  0  2           0  0  0
   -0.1999    1.4161   -2.8834 O   0  0  0  0  0  2           0  0  0
    0.4705    6.5917   -0.3067 O   0  0  0  0  0  2           0  0  0
    0.0000   -0.0000    0.0000 N   0  0  0  0  0  3           0  0  0
   -2.0836    0.0005    0.7718 N   0  0  0  0  0  3           0  0  0
   -2.0993    0.0105   -0.5980 C   0  0  0  0  0  4           0  0  0
   -0.8119    0.0000    1.1177 C   0  0  0  0  0  4           0  0  0
   -0.8166    0.0194   -1.1139 C   0  0  0  0  0  4           0  0  0
    3.5038    5.4181    0.0021 C   0  0  0  0  0  4           0  0  0
    2.9850    4.0443    0.0010 C   0  0  0  0  0  4           0  0  0
    2.8325    6.5077   -0.5957 C   0  0  0  0  0  4           0  0  0
    1.9918    1.3967    0.0000 C   0  0  0  0  0  4           0  0  0
    4.7517    5.6810    0.6032 C   0  0  0  0  0  4           0  0  0
    2.7429    3.3692   -1.2047 C   0  0  0  0  0  4           0  0  0
    2.7185    3.3772    1.2058 C   0  0  0  0  0  4           0  0  0
    3.3932    7.7949   -0.5935 C   0  0  0  0  0  4           0  0  0
    2.2497    2.0614   -1.2052 C   0  0  0  0  0  4           0  0  0
    2.2251    2.0695    1.2056 C   0  0  0  0  0  4           0  0  0
    5.3093    6.9622    0.6028 C   0  0  0  0  0  4           0  0  0
    4.6320    8.0170    0.0016 C   0  0  0  0  0  4           0  0  0
    1.4819    6.3563   -1.1754 C   0  0  0  0  0  4           0  0  0
    0.2361    1.6422   -4.1531 C   0  0  0  0  0  4           0  0  0
   -0.3373    0.0390   -2.5151 C   0  0  0  0  0  4           0  0  0
    1.4497   -0.0000   -0.0000 C   0  0  0  0  0  4           0  0  0
   -0.3193   -0.0056    2.5204 C   0  0  0  0  0  4           0  0  0
   -1.0721   -1.0028    3.3951 C   0  0  0  0  0  4           0  0  0
   -0.5726   -1.0153    4.8377 C   0  0  0  0  0  4           0  0  0
    0.3013    3.1175   -4.4098 C   0  0  0  0  0  4           0  0  0
   -1.3414   -2.0175    5.6828 C   0  0  0  0  0  4           0  0  0
  1  8  1  0     0  0
  2 23  2  0     0  0
  3 24  2  0     0  0
  4 24  1  0     0  0
  4 25  1  0     0  0
  5 23  1  0     0  0
  6  9  1  0     0  0
  6 10  1  0     0  0
  6 26  1  0     0  0
  7  8  1  0     0  0
  7  9  2  0     0  0
  8 10  2  0     0  0
  9 27  1  0     0  0
 10 25  1  0     0  0
 11 12  1  0     0  0
 11 13  1  0     0  0
 11 15  2  0     0  0
 12 16  2  0     0  0
 12 17  1  0     0  0
 13 18  2  0     0  0
 13 23  1  0     0  0
 14 19  2  0     0  0
 14 20  1  0     0  0
 14 26  1  0     0  0
 15 21  1  0     0  0
 16 19  1  0     0  0
 17 20  2  0     0  0
 18 22  1  0     0  0
 21 22  2  0     0  0
 24 30  1  0     0  0
 27 28  1  0     0  0
 28 29  1  0     0  0
 29 31  1  0     0  0
M  END
> <standard_type>
pIC50

> <# Confs.>
25

> <canonical_smiles>
CCCCC1=NC(Cl)=C(COC(C)=O)N1CC2=CC=C(C3=CC=CC=C3C(O)=O)C=C2

> <standard_relation>
=

> <Publication_ID>
nan

> <predicted_activity_value>
6.920818753952375

> <actual_activity_value>
5.47755576649368

> <Compound>
18

> <standard_units>
nM

> hash
17930109462890095984

$$$$
18_
XXILIB    08252103513D 0   0.00000     0.00000

 31 33  0     1  0            999 V2000
   -3.5602    0.0114   -1.4766 Cl  0  0  0  0  0  1           0  0  0
    1.3025    6.0466   -2.3445 O   0  0  0  0  0  2           0  0  0
    0.5144    0.7915   -4.9878 O   0  0  0  0  0  2           0  0  0
   -0.1999    1.4161   -2.8834 O   0  0  0  0  0  2           0  0  0
    0.4705    6.5917   -0.3067 O   0  0  0  0  0  2           0  0  0
    0.0000   -0.0000    0.0000 N   0  0  0  0  0  3           0  0  0
   -2.0836    0.0005    0.7718 N   0  0  0  0  0  3           0  0  0
   -2.0993    0.0105   -0.5980 C   0  0  0  0  0  4           0  0  0
   -0.8119    0.0000    1.1177 C   0  0  0  0  0  4           0  0  0
   -0.8166    0.0194   -1.1139 C   0  0  0  0  0  4           0  0  0
    3.5038    5.4181    0.0021 C   0  0  0  0  0  4           0  0  0
    2.9850    4.0443    0.0010 C   0  0  0  0  0  4           0  0  0
    2.8325    6.5077   -0.5957 C   0  0  0  0  0  4           0  0  0
    1.9918    1.3967    0.0000 C   0  0  0  0  0  4           0  0  0
    4.7517    5.6810    0.6032 C   0  0  0  0  0  4           0  0  0
    2.7429    3.3692   -1.2047 C   0  0  0  0  0  4           0  0  0
    2.7185    3.3772    1.2058 C   0  0  0  0  0  4           0  0  0
    3.3932    7.7949   -0.5935 C   0  0  0  0  0  4           0  0  0
    2.2497    2.0614   -1.2052 C   0  0  0  0  0  4           0  0  0
    2.2251    2.0695    1.2056 C   0  0  0  0  0  4           0  0  0
    5.3093    6.9622    0.6028 C   0  0  0  0  0  4           0  0  0
    4.6320    8.0170    0.0016 C   0  0  0  0  0  4           0  0  0
    1.4819    6.3563   -1.1754 C   0  0  0  0  0  4           0  0  0
    0.2361    1.6422   -4.1531 C   0  0  0  0  0  4           0  0  0
   -0.3373    0.0390   -2.5151 C   0  0  0  0  0  4           0  0  0
    1.4497   -0.0000   -0.0000 C   0  0  0  0  0  4           0  0  0
   -0.3193   -0.0056    2.5204 C   0  0  0  0  0  4           0  0  0
   -1.0721   -1.0028    3.3951 C   0  0  0  0  0  4           0  0  0
   -0.9474   -2.4389    2.8925 C   0  0  0  0  0  4           0  0  0
    0.3013    3.1175   -4.4098 C   0  0  0  0  0  4           0  0  0
   -1.7072   -3.4071    3.7839 C   0  0  0  0  0  4           0  0  0
  1  8  1  0     0  0
  2 23  2  0     0  0
  3 24  2  0     0  0
  4 24  1  0     0  0
  4 25  1  0     0  0
  5 23  1  0     0  0
  6  9  1  0     0  0
  6 10  1  0     0  0
  6 26  1  0     0  0
  7  8  1  0     0  0
  7  9  2  0     0  0
  8 10  2  0     0  0
  9 27  1  0     0  0
 10 25  1  0     0  0
 11 12  1  0     0  0
 11 13  1  0     0  0
 11 15  2  0     0  0
 12 16  2  0     0  0
 12 17  1  0     0  0
 13 18  2  0     0  0
 13 23  1  0     0  0
 14 19  2  0     0  0
 14 20  1  0     0  0
 14 26  1  0     0  0
 15 21  1  0     0  0
 16 19  1  0     0  0
 17 20  2  0     0  0
 18 22  1  0     0  0
 21 22  2  0     0  0
 24 30  1  0     0  0
 27 28  1  0     0  0
 28 29  1  0     0  0
 29 31  1  0     0  0
M  END
> <standard_type>
pIC50

> <# Confs.>
25

> <canonical_smiles>
CCCCC1=NC(Cl)=C(COC(C)=O)N1CC2=CC=C(C3=CC=CC=C3C(O)=O)C=C2

> <standard_relation>
=

> <Publication_ID>
nan

> <predicted_activity_value>
6.920818753952375

> <actual_activity_value>
5.47755576649368

> <Compound>
18

> <standard_units>
nM

> hash
17930109462890095984

$$$$
18_
XXILIB    08252103513D 0   0.00000     0.00000

 31 33  0     1  0            999 V2000
   -3.5602    0.0114   -1.4766 Cl  0  0  0  0  0  1           0  0  0
    3.8813   -5.2594   -3.2277 O   0  0  0  0  0  2           0  0  0
    0.5099   -0.6441   -5.0094 O   0  0  0  0  0  2           0  0  0
   -0.2086   -1.3273   -2.9248 O   0  0  0  0  0  2           0  0  0
    1.7942   -5.9307   -2.6490 O   0  0  0  0  0  2           0  0  0
    0.0000   -0.0000    0.0000 N   0  0  0  0  0  3           0  0  0
   -2.0836    0.0005    0.7718 N   0  0  0  0  0  3           0  0  0
   -2.0993    0.0105   -0.5980 C   0  0  0  0  0  4           0  0  0
   -0.8119    0.0000    1.1177 C   0  0  0  0  0  4           0  0  0
   -0.8166    0.0194   -1.1139 C   0  0  0  0  0  4           0  0  0
    3.5746   -5.3906    0.0336 C   0  0  0  0  0  4           0  0  0
    3.0352   -4.0248    0.0233 C   0  0  0  0  0  4           0  0  0
    3.5707   -6.2411   -1.0943 C   0  0  0  0  0  4           0  0  0
    1.9918   -1.3967    0.0000 C   0  0  0  0  0  4           0  0  0
    4.1048   -5.9112    1.2317 C   0  0  0  0  0  4           0  0  0
    3.5583   -3.0527   -0.8424 C   0  0  0  0  0  4           0  0  0
    1.9858   -3.6616    0.8803 C   0  0  0  0  0  4           0  0  0
    4.0698   -7.5511   -1.0168 C   0  0  0  0  0  4           0  0  0
    3.0442   -1.7530   -0.8522 C   0  0  0  0  0  4           0  0  0
    1.4716   -2.3619    0.8708 C   0  0  0  0  0  4           0  0  0
    4.5992   -7.2159    1.3077 C   0  0  0  0  0  4           0  0  0
    4.5781   -8.0358    0.1851 C   0  0  0  0  0  4           0  0  0
    3.1176   -5.7641   -2.4172 C   0  0  0  0  0  4           0  0  0
    0.2262   -1.5178   -4.2007 C   0  0  0  0  0  4           0  0  0
   -0.3373    0.0390   -2.5151 C   0  0  0  0  0  4           0  0  0
    1.4497    0.0000   -0.0000 C   0  0  0  0  0  4           0  0  0
   -0.3193   -0.0056    2.5204 C   0  0  0  0  0  4           0  0  0
   -1.0646    0.9923    3.4005 C   0  0  0  0  0  4           0  0  0
   -0.5651    0.9933    4.8432 C   0  0  0  0  0  4           0  0  0
    0.3445   -2.9856   -4.4804 C   0  0  0  0  0  4           0  0  0
   -1.3264    1.9966    5.6937 C   0  0  0  0  0  4           0  0  0
  1  8  1  0     0  0
  2 23  2  0     0  0
  3 24  2  0     0  0
  4 24  1  0     0  0
  4 25  1  0     0  0
  5 23  1  0     0  0
  6  9  1  0     0  0
  6 10  1  0     0  0
  6 26  1  0     0  0
  7  8  1  0     0  0
  7  9  2  0     0  0
  8 10  2  0     0  0
  9 27  1  0     0  0
 10 25  1  0     0  0
 11 12  1  0     0  0
 11 13  1  0     0  0
 11 15  2  0     0  0
 12 16  2  0     0  0
 12 17  1  0     0  0
 13 18  2  0     0  0
 13 23  1  0     0  0
 14 19  2  0     0  0
 14 20  1  0     0  0
 14 26  1  0     0  0
 15 21  1  0     0  0
 16 19  1  0     0  0
 17 20  2  0     0  0
 18 22  1  0     0  0
 21 22  2  0     0  0
 24 30  1  0     0  0
 27 28  1  0     0  0
 28 29  1  0     0  0
 29 31  1  0     0  0
M  END
> <standard_type>
pIC50

> <# Confs.>
25

> <canonical_smiles>
CCCCC1=NC(Cl)=C(COC(C)=O)N1CC2=CC=C(C3=CC=CC=C3C(O)=O)C=C2

> <standard_relation>
=

> <Publication_ID>
nan

> <predicted_activity_value>
6.920818753952375

> <actual_activity_value>
5.47755576649368

> <Compound>
18

> <standard_units>
nM

> hash
17930109462890095984

$$$$
18_
XXILIB    08252103513D 0   0.00000     0.00000

 31 33  0     1  0            999 V2000
   -3.5602    0.0114   -1.4766 Cl  0  0  0  0  0  1           0  0  0
    3.8813   -5.2594   -3.2277 O   0  0  0  0  0  2           0  0  0
    0.5099   -0.6441   -5.0094 O   0  0  0  0  0  2           0  0  0
   -0.2086   -1.3273   -2.9248 O   0  0  0  0  0  2           0  0  0
    1.7942   -5.9307   -2.6490 O   0  0  0  0  0  2           0  0  0
    0.0000   -0.0000    0.0000 N   0  0  0  0  0  3           0  0  0
   -2.0836    0.0005    0.7718 N   0  0  0  0  0  3           0  0  0
   -2.0993    0.0105   -0.5980 C   0  0  0  0  0  4           0  0  0
   -0.8119    0.0000    1.1177 C   0  0  0  0  0  4           0  0  0
   -0.8166    0.0194   -1.1139 C   0  0  0  0  0  4           0  0  0
    3.5746   -5.3906    0.0336 C   0  0  0  0  0  4           0  0  0
    3.0352   -4.0248    0.0233 C   0  0  0  0  0  4           0  0  0
    3.5707   -6.2411   -1.0943 C   0  0  0  0  0  4           0  0  0
    1.9918   -1.3967    0.0000 C   0  0  0  0  0  4           0  0  0
    4.1048   -5.9112    1.2317 C   0  0  0  0  0  4           0  0  0
    3.5583   -3.0527   -0.8424 C   0  0  0  0  0  4           0  0  0
    1.9858   -3.6616    0.8803 C   0  0  0  0  0  4           0  0  0
    4.0698   -7.5511   -1.0168 C   0  0  0  0  0  4           0  0  0
    3.0442   -1.7530   -0.8522 C   0  0  0  0  0  4           0  0  0
    1.4716   -2.3619    0.8708 C   0  0  0  0  0  4           0  0  0
    4.5992   -7.2159    1.3077 C   0  0  0  0  0  4           0  0  0
    4.5781   -8.0358    0.1851 C   0  0  0  0  0  4           0  0  0
    3.1176   -5.7641   -2.4172 C   0  0  0  0  0  4           0  0  0
    0.2262   -1.5178   -4.2007 C   0  0  0  0  0  4           0  0  0
   -0.3373    0.0390   -2.5151 C   0  0  0  0  0  4           0  0  0
    1.4497    0.0000   -0.0000 C   0  0  0  0  0  4           0  0  0
   -0.3193   -0.0056    2.5204 C   0  0  0  0  0  4           0  0  0
   -1.0646    0.9923    3.4005 C   0  0  0  0  0  4           0  0  0
   -0.9293    2.4302    2.9057 C   0  0  0  0  0  4           0  0  0
    0.3445   -2.9856   -4.4804 C   0  0  0  0  0  4           0  0  0
   -1.6819    3.3992    3.8024 C   0  0  0  0  0  4           0  0  0
  1  8  1  0     0  0
  2 23  2  0     0  0
  3 24  2  0     0  0
  4 24  1  0     0  0
  4 25  1  0     0  0
  5 23  1  0     0  0
  6  9  1  0     0  0
  6 10  1  0     0  0
  6 26  1  0     0  0
  7  8  1  0     0  0
  7  9  2  0     0  0
  8 10  2  0     0  0
  9 27  1  0     0  0
 10 25  1  0     0  0
 11 12  1  0     0  0
 11 13  1  0     0  0
 11 15  2  0     0  0
 12 16  2  0     0  0
 12 17  1  0     0  0
 13 18  2  0     0  0
 13 23  1  0     0  0
 14 19  2  0     0  0
 14 20  1  0     0  0
 14 26  1  0     0  0
 15 21  1  0     0  0
 16 19  1  0     0  0
 17 20  2  0     0  0
 18 22  1  0     0  0
 21 22  2  0     0  0
 24 30  1  0     0  0
 27 28  1  0     0  0
 28 29  1  0     0  0
 29 31  1  0     0  0
M  END
> <standard_type>
pIC50

> <# Confs.>
25

> <canonical_smiles>
CCCCC1=NC(Cl)=C(COC(C)=O)N1CC2=CC=C(C3=CC=CC=C3C(O)=O)C=C2

> <standard_relation>
=

> <Publication_ID>
nan

> <predicted_activity_value>
6.920818753952375

> <actual_activity_value>
5.47755576649368

> <Compound>
18

> <standard_units>
nM

> hash
17930109462890095984

$$$$
18_
XXILIB    08252103513D 0   0.00000     0.00000

 31 33  0     1  0            999 V2000
   -3.5602    0.0114   -1.4766 Cl  0  0  0  0  0  1           0  0  0
    5.4297    4.6585   -2.5398 O   0  0  0  0  0  2           0  0  0
    0.5144    0.7915   -4.9878 O   0  0  0  0  0  2           0  0  0
   -0.1999    1.4161   -2.8834 O   0  0  0  0  0  2           0  0  0
    6.4442    4.1261   -0.5829 O   0  0  0  0  0  2           0  0  0
    0.0000   -0.0000    0.0000 N   0  0  0  0  0  3           0  0  0
   -2.0836    0.0005    0.7718 N   0  0  0  0  0  3           0  0  0
   -2.0993    0.0105   -0.5980 C   0  0  0  0  0  4           0  0  0
   -0.8119    0.0000    1.1177 C   0  0  0  0  0  4           0  0  0
   -0.8166    0.0194   -1.1139 C   0  0  0  0  0  4           0  0  0
    3.5038    5.4181    0.0021 C   0  0  0  0  0  4           0  0  0
    2.9850    4.0443    0.0010 C   0  0  0  0  0  4           0  0  0
    4.7388    5.7878   -0.5753 C   0  0  0  0  0  4           0  0  0
    1.9918    1.3967    0.0000 C   0  0  0  0  0  4           0  0  0
    2.7573    6.4341    0.6330 C   0  0  0  0  0  4           0  0  0
    2.7429    3.3692   -1.2047 C   0  0  0  0  0  4           0  0  0
    2.7185    3.3772    1.2058 C   0  0  0  0  0  4           0  0  0
    5.2007    7.1123   -0.5143 C   0  0  0  0  0  4           0  0  0
    2.2497    2.0614   -1.2052 C   0  0  0  0  0  4           0  0  0
    2.2251    2.0695    1.2056 C   0  0  0  0  0  4           0  0  0
    3.2193    7.7514    0.6946 C   0  0  0  0  0  4           0  0  0
    4.4416    8.0888    0.1245 C   0  0  0  0  0  4           0  0  0
    5.5554    4.8180   -1.3341 C   0  0  0  0  0  4           0  0  0
    0.2361    1.6422   -4.1531 C   0  0  0  0  0  4           0  0  0
   -0.3373    0.0390   -2.5151 C   0  0  0  0  0  4           0  0  0
    1.4497   -0.0000   -0.0000 C   0  0  0  0  0  4           0  0  0
   -0.3193   -0.0056    2.5204 C   0  0  0  0  0  4           0  0  0
   -1.0721   -1.0028    3.3951 C   0  0  0  0  0  4           0  0  0
   -0.5726   -1.0153    4.8377 C   0  0  0  0  0  4           0  0  0
    0.3013    3.1175   -4.4098 C   0  0  0  0  0  4           0  0  0
   -1.3414   -2.0175    5.6828 C   0  0  0  0  0  4           0  0  0
  1  8  1  0     0  0
  2 23  2  0     0  0
  3 24  2  0     0  0
  4 24  1  0     0  0
  4 25  1  0     0  0
  5 23  1  0     0  0
  6  9  1  0     0  0
  6 10  1  0     0  0
  6 26  1  0     0  0
  7  8  1  0     0  0
  7  9  2  0     0  0
  8 10  2  0     0  0
  9 27  1  0     0  0
 10 25  1  0     0  0
 11 12  1  0     0  0
 11 13  1  0     0  0
 11 15  2  0     0  0
 12 16  2  0     0  0
 12 17  1  0     0  0
 13 18  2  0     0  0
 13 23  1  0     0  0
 14 19  2  0     0  0
 14 20  1  0     0  0
 14 26  1  0     0  0
 15 21  1  0     0  0
 16 19  1  0     0  0
 17 20  2  0     0  0
 18 22  1  0     0  0
 21 22  2  0     0  0
 24 30  1  0     0  0
 27 28  1  0     0  0
 28 29  1  0     0  0
 29 31  1  0     0  0
M  END
> <standard_type>
pIC50

> <# Confs.>
25

> <canonical_smiles>
CCCCC1=NC(Cl)=C(COC(C)=O)N1CC2=CC=C(C3=CC=CC=C3C(O)=O)C=C2

> <standard_relation>
=

> <Publication_ID>
nan

> <predicted_activity_value>
6.920818753952375

> <actual_activity_value>
5.47755576649368

> <Compound>
18

> <standard_units>
nM

> hash
17930109462890095984

$$$$
18_
XXILIB    08252103513D 0   0.00000     0.00000

 31 33  0     1  0            999 V2000
   -3.5602    0.0114   -1.4766 Cl  0  0  0  0  0  1           0  0  0
    6.5480   -4.0109   -0.0139 O   0  0  0  0  0  2           0  0  0
    0.5144    0.7915   -4.9878 O   0  0  0  0  0  2           0  0  0
   -0.1999    1.4161   -2.8834 O   0  0  0  0  0  2           0  0  0
    5.9210   -4.4765    2.1150 O   0  0  0  0  0  2           0  0  0
    0.0000   -0.0000    0.0000 N   0  0  0  0  0  3           0  0  0
   -2.0836    0.0005    0.7718 N   0  0  0  0  0  3           0  0  0
   -2.0993    0.0105   -0.5980 C   0  0  0  0  0  4           0  0  0
   -0.8119    0.0000    1.1177 C   0  0  0  0  0  4           0  0  0
   -0.8166    0.0194   -1.1139 C   0  0  0  0  0  4           0  0  0
    3.5746   -5.3906    0.0336 C   0  0  0  0  0  4           0  0  0
    3.0352   -4.0248    0.0233 C   0  0  0  0  0  4           0  0  0
    4.9207   -5.6973    0.3321 C   0  0  0  0  0  4           0  0  0
    1.9918   -1.3967    0.0000 C   0  0  0  0  0  4           0  0  0
    2.7261   -6.4670   -0.2968 C   0  0  0  0  0  4           0  0  0
    3.5583   -3.0527   -0.8424 C   0  0  0  0  0  4           0  0  0
    1.9858   -3.6616    0.8803 C   0  0  0  0  0  4           0  0  0
    5.3892   -7.0203    0.2933 C   0  0  0  0  0  4           0  0  0
    3.0442   -1.7530   -0.8522 C   0  0  0  0  0  4           0  0  0
    1.4716   -2.3619    0.8708 C   0  0  0  0  0  4           0  0  0
    3.1944   -7.7829   -0.3369 C   0  0  0  0  0  4           0  0  0
    4.5257   -8.0583   -0.0456 C   0  0  0  0  0  4           0  0  0
    5.8688   -4.6537    0.7738 C   0  0  0  0  0  4           0  0  0
    0.2361    1.6422   -4.1531 C   0  0  0  0  0  4           0  0  0
   -0.3373    0.0390   -2.5151 C   0  0  0  0  0  4           0  0  0
    1.4497    0.0000   -0.0000 C   0  0  0  0  0  4           0  0  0
   -0.3193   -0.0056    2.5204 C   0  0  0  0  0  4           0  0  0
   -1.0721   -1.0028    3.3951 C   0  0  0  0  0  4           0  0  0
   -0.5726   -1.0153    4.8377 C   0  0  0  0  0  4           0  0  0
    0.3013    3.1175   -4.4098 C   0  0  0  0  0  4           0  0  0
   -1.3414   -2.0175    5.6828 C   0  0  0  0  0  4           0  0  0
  1  8  1  0     0  0
  2 23  2  0     0  0
  3 24  2  0     0  0
  4 24  1  0     0  0
  4 25  1  0     0  0
  5 23  1  0     0  0
  6  9  1  0     0  0
  6 10  1  0     0  0
  6 26  1  0     0  0
  7  8  1  0     0  0
  7  9  2  0     0  0
  8 10  2  0     0  0
  9 27  1  0     0  0
 10 25  1  0     0  0
 11 12  1  0     0  0
 11 13  1  0     0  0
 11 15  2  0     0  0
 12 16  2  0     0  0
 12 17  1  0     0  0
 13 18  2  0     0  0
 13 23  1  0     0  0
 14 19  2  0     0  0
 14 20  1  0     0  0
 14 26  1  0     0  0
 15 21  1  0     0  0
 16 19  1  0     0  0
 17 20  2  0     0  0
 18 22  1  0     0  0
 21 22  2  0     0  0
 24 30  1  0     0  0
 27 28  1  0     0  0
 28 29  1  0     0  0
 29 31  1  0     0  0
M  END
> <standard_type>
pIC50

> <# Confs.>
25

> <canonical_smiles>
CCCCC1=NC(Cl)=C(COC(C)=O)N1CC2=CC=C(C3=CC=CC=C3C(O)=O)C=C2

> <standard_relation>
=

> <Publication_ID>
nan

> <predicted_activity_value>
6.920818753952375

> <actual_activity_value>
5.47755576649368

> <Compound>
18

> <standard_units>
nM

> hash
17930109462890095984

$$$$
18_
XXILIB    08252103513D 0   0.00000     0.00000

 31 33  0     1  0            999 V2000
   -3.5602    0.0114   -1.4766 Cl  0  0  0  0  0  1           0  0  0
    5.4297    4.6585   -2.5398 O   0  0  0  0  0  2           0  0  0
    0.5144    0.7915   -4.9878 O   0  0  0  0  0  2           0  0  0
   -0.1999    1.4161   -2.8834 O   0  0  0  0  0  2           0  0  0
    6.4442    4.1261   -0.5829 O   0  0  0  0  0  2           0  0  0
    0.0000   -0.0000    0.0000 N   0  0  0  0  0  3           0  0  0
   -2.0836    0.0005    0.7718 N   0  0  0  0  0  3           0  0  0
   -2.0993    0.0105   -0.5980 C   0  0  0  0  0  4           0  0  0
   -0.8119    0.0000    1.1177 C   0  0  0  0  0  4           0  0  0
   -0.8166    0.0194   -1.1139 C   0  0  0  0  0  4           0  0  0
    3.5038    5.4181    0.0021 C   0  0  0  0  0  4           0  0  0
    2.9850    4.0443    0.0010 C   0  0  0  0  0  4           0  0  0
    4.7388    5.7878   -0.5753 C   0  0  0  0  0  4           0  0  0
    1.9918    1.3967    0.0000 C   0  0  0  0  0  4           0  0  0
    2.7573    6.4341    0.6330 C   0  0  0  0  0  4           0  0  0
    2.7429    3.3692   -1.2047 C   0  0  0  0  0  4           0  0  0
    2.7185    3.3772    1.2058 C   0  0  0  0  0  4           0  0  0
    5.2007    7.1123   -0.5143 C   0  0  0  0  0  4           0  0  0
    2.2497    2.0614   -1.2052 C   0  0  0  0  0  4           0  0  0
    2.2251    2.0695    1.2056 C   0  0  0  0  0  4           0  0  0
    3.2193    7.7514    0.6946 C   0  0  0  0  0  4           0  0  0
    4.4416    8.0888    0.1245 C   0  0  0  0  0  4           0  0  0
    5.5554    4.8180   -1.3341 C   0  0  0  0  0  4           0  0  0
    0.2361    1.6422   -4.1531 C   0  0  0  0  0  4           0  0  0
   -0.3373    0.0390   -2.5151 C   0  0  0  0  0  4           0  0  0
    1.4497   -0.0000   -0.0000 C   0  0  0  0  0  4           0  0  0
   -0.3193   -0.0056    2.5204 C   0  0  0  0  0  4           0  0  0
   -1.0721   -1.0028    3.3951 C   0  0  0  0  0  4           0  0  0
   -0.9474   -2.4389    2.8925 C   0  0  0  0  0  4           0  0  0
    0.3013    3.1175   -4.4098 C   0  0  0  0  0  4           0  0  0
   -1.7072   -3.4071    3.7839 C   0  0  0  0  0  4           0  0  0
  1  8  1  0     0  0
  2 23  2  0     0  0
  3 24  2  0     0  0
  4 24  1  0     0  0
  4 25  1  0     0  0
  5 23  1  0     0  0
  6  9  1  0     0  0
  6 10  1  0     0  0
  6 26  1  0     0  0
  7  8  1  0     0  0
  7  9  2  0     0  0
  8 10  2  0     0  0
  9 27  1  0     0  0
 10 25  1  0     0  0
 11 12  1  0     0  0
 11 13  1  0     0  0
 11 15  2  0     0  0
 12 16  2  0     0  0
 12 17  1  0     0  0
 13 18  2  0     0  0
 13 23  1  0     0  0
 14 19  2  0     0  0
 14 20  1  0     0  0
 14 26  1  0     0  0
 15 21  1  0     0  0
 16 19  1  0     0  0
 17 20  2  0     0  0
 18 22  1  0     0  0
 21 22  2  0     0  0
 24 30  1  0     0  0
 27 28  1  0     0  0
 28 29  1  0     0  0
 29 31  1  0     0  0
M  END
> <standard_type>
pIC50

> <# Confs.>
25

> <canonical_smiles>
CCCCC1=NC(Cl)=C(COC(C)=O)N1CC2=CC=C(C3=CC=CC=C3C(O)=O)C=C2

> <standard_relation>
=

> <Publication_ID>
nan

> <predicted_activity_value>
6.920818753952375

> <actual_activity_value>
5.47755576649368

> <Compound>
18

> <standard_units>
nM

> hash
17930109462890095984

$$$$
18_
XXILIB    08252103513D 0   0.00000     0.00000

 31 33  0     1  0            999 V2000
   -3.5602    0.0114   -1.4766 Cl  0  0  0  0  0  1           0  0  0
    3.4570    5.2105    3.3018 O   0  0  0  0  0  2           0  0  0
    0.5099   -0.6441   -5.0094 O   0  0  0  0  0  2           0  0  0
   -0.2086   -1.3273   -2.9248 O   0  0  0  0  0  2           0  0  0
    5.5166    4.6334    2.5488 O   0  0  0  0  0  2           0  0  0
    0.0000   -0.0000    0.0000 N   0  0  0  0  0  3           0  0  0
   -2.0836    0.0005    0.7718 N   0  0  0  0  0  3           0  0  0
   -2.0993    0.0105   -0.5980 C   0  0  0  0  0  4           0  0  0
   -0.8119    0.0000    1.1177 C   0  0  0  0  0  4           0  0  0
   -0.8166    0.0194   -1.1139 C   0  0  0  0  0  4           0  0  0
    3.5774    5.3896    0.0306 C   0  0  0  0  0  4           0  0  0
    3.0365    4.0243    0.0219 C   0  0  0  0  0  4           0  0  0
    4.1353    6.0021    1.1746 C   0  0  0  0  0  4           0  0  0
    1.9918    1.3967    0.0000 C   0  0  0  0  0  4           0  0  0
    3.5214    6.1584   -1.1498 C   0  0  0  0  0  4           0  0  0
    1.9701    3.6691    0.8613 C   0  0  0  0  0  4           0  0  0
    3.5755    3.0446   -0.8250 C   0  0  0  0  0  4           0  0  0
    4.6067    7.3240    1.1327 C   0  0  0  0  0  4           0  0  0
    1.4552    2.3697    0.8522 C   0  0  0  0  0  4           0  0  0
    3.0610    1.7450   -0.8342 C   0  0  0  0  0  4           0  0  0
    3.9891    7.4745   -1.1893 C   0  0  0  0  0  4           0  0  0
    4.5278    8.0574   -0.0479 C   0  0  0  0  0  4           0  0  0
    4.3192    5.2551    2.4360 C   0  0  0  0  0  4           0  0  0
    0.2262   -1.5178   -4.2007 C   0  0  0  0  0  4           0  0  0
   -0.3373    0.0390   -2.5151 C   0  0  0  0  0  4           0  0  0
    1.4497   -0.0000    0.0000 C   0  0  0  0  0  4           0  0  0
   -0.3193   -0.0056    2.5204 C   0  0  0  0  0  4           0  0  0
   -1.0721   -1.0028    3.3951 C   0  0  0  0  0  4           0  0  0
   -0.5726   -1.0153    4.8377 C   0  0  0  0  0  4           0  0  0
    0.3445   -2.9856   -4.4804 C   0  0  0  0  0  4           0  0  0
   -1.3414   -2.0175    5.6828 C   0  0  0  0  0  4           0  0  0
  1  8  1  0     0  0
  2 23  2  0     0  0
  3 24  2  0     0  0
  4 24  1  0     0  0
  4 25  1  0     0  0
  5 23  1  0     0  0
  6  9  1  0     0  0
  6 10  1  0     0  0
  6 26  1  0     0  0
  7  8  1  0     0  0
  7  9  2  0     0  0
  8 10  2  0     0  0
  9 27  1  0     0  0
 10 25  1  0     0  0
 11 12  1  0     0  0
 11 13  1  0     0  0
 11 15  2  0     0  0
 12 16  2  0     0  0
 12 17  1  0     0  0
 13 18  2  0     0  0
 13 23  1  0     0  0
 14 19  2  0     0  0
 14 20  1  0     0  0
 14 26  1  0     0  0
 15 21  1  0     0  0
 16 19  1  0     0  0
 17 20  2  0     0  0
 18 22  1  0     0  0
 21 22  2  0     0  0
 24 30  1  0     0  0
 27 28  1  0     0  0
 28 29  1  0     0  0
 29 31  1  0     0  0
M  END
> <standard_type>
pIC50

> <# Confs.>
25

> <canonical_smiles>
CCCCC1=NC(Cl)=C(COC(C)=O)N1CC2=CC=C(C3=CC=CC=C3C(O)=O)C=C2

> <standard_relation>
=

> <Publication_ID>
nan

> <predicted_activity_value>
6.920818753952375

> <actual_activity_value>
5.47755576649368

> <Compound>
18

> <standard_units>
nM

> hash
17930109462890095984

$$$$
18_
XXILIB    08252103513D 0   0.00000     0.00000

 31 33  0     1  0            999 V2000
   -3.5602    0.0114   -1.4766 Cl  0  0  0  0  0  1           0  0  0
    3.4570    5.2105    3.3018 O   0  0  0  0  0  2           0  0  0
    0.5099   -0.6441   -5.0094 O   0  0  0  0  0  2           0  0  0
   -0.2086   -1.3273   -2.9248 O   0  0  0  0  0  2           0  0  0
    5.5166    4.6334    2.5488 O   0  0  0  0  0  2           0  0  0
    0.0000   -0.0000    0.0000 N   0  0  0  0  0  3           0  0  0
   -2.0836    0.0005    0.7718 N   0  0  0  0  0  3           0  0  0
   -2.0993    0.0105   -0.5980 C   0  0  0  0  0  4           0  0  0
   -0.8119    0.0000    1.1177 C   0  0  0  0  0  4           0  0  0
   -0.8166    0.0194   -1.1139 C   0  0  0  0  0  4           0  0  0
    3.5774    5.3896    0.0306 C   0  0  0  0  0  4           0  0  0
    3.0365    4.0243    0.0219 C   0  0  0  0  0  4           0  0  0
    4.1353    6.0021    1.1746 C   0  0  0  0  0  4           0  0  0
    1.9918    1.3967    0.0000 C   0  0  0  0  0  4           0  0  0
    3.5214    6.1584   -1.1498 C   0  0  0  0  0  4           0  0  0
    1.9701    3.6691    0.8613 C   0  0  0  0  0  4           0  0  0
    3.5755    3.0446   -0.8250 C   0  0  0  0  0  4           0  0  0
    4.6067    7.3240    1.1327 C   0  0  0  0  0  4           0  0  0
    1.4552    2.3697    0.8522 C   0  0  0  0  0  4           0  0  0
    3.0610    1.7450   -0.8342 C   0  0  0  0  0  4           0  0  0
    3.9891    7.4745   -1.1893 C   0  0  0  0  0  4           0  0  0
    4.5278    8.0574   -0.0479 C   0  0  0  0  0  4           0  0  0
    4.3192    5.2551    2.4360 C   0  0  0  0  0  4           0  0  0
    0.2262   -1.5178   -4.2007 C   0  0  0  0  0  4           0  0  0
   -0.3373    0.0390   -2.5151 C   0  0  0  0  0  4           0  0  0
    1.4497   -0.0000    0.0000 C   0  0  0  0  0  4           0  0  0
   -0.3193   -0.0056    2.5204 C   0  0  0  0  0  4           0  0  0
   -1.0721   -1.0028    3.3951 C   0  0  0  0  0  4           0  0  0
   -0.9474   -2.4389    2.8925 C   0  0  0  0  0  4           0  0  0
    0.3445   -2.9856   -4.4804 C   0  0  0  0  0  4           0  0  0
   -1.7072   -3.4071    3.7839 C   0  0  0  0  0  4           0  0  0
  1  8  1  0     0  0
  2 23  2  0     0  0
  3 24  2  0     0  0
  4 24  1  0     0  0
  4 25  1  0     0  0
  5 23  1  0     0  0
  6  9  1  0     0  0
  6 10  1  0     0  0
  6 26  1  0     0  0
  7  8  1  0     0  0
  7  9  2  0     0  0
  8 10  2  0     0  0
  9 27  1  0     0  0
 10 25  1  0     0  0
 11 12  1  0     0  0
 11 13  1  0     0  0
 11 15  2  0     0  0
 12 16  2  0     0  0
 12 17  1  0     0  0
 13 18  2  0     0  0
 13 23  1  0     0  0
 14 19  2  0     0  0
 14 20  1  0     0  0
 14 26  1  0     0  0
 15 21  1  0     0  0
 16 19  1  0     0  0
 17 20  2  0     0  0
 18 22  1  0     0  0
 21 22  2  0     0  0
 24 30  1  0     0  0
 27 28  1  0     0  0
 28 29  1  0     0  0
 29 31  1  0     0  0
M  END
> <standard_type>
pIC50

> <# Confs.>
25

> <canonical_smiles>
CCCCC1=NC(Cl)=C(COC(C)=O)N1CC2=CC=C(C3=CC=CC=C3C(O)=O)C=C2

> <standard_relation>
=

> <Publication_ID>
nan

> <predicted_activity_value>
6.920818753952375

> <actual_activity_value>
5.47755576649368

> <Compound>
18

> <standard_units>
nM

> hash
17930109462890095984

$$$$
18_
XXILIB    08252103513D 0   0.00000     0.00000

 31 33  0     1  0            999 V2000
   -3.5602    0.0114   -1.4766 Cl  0  0  0  0  0  1           0  0  0
    2.0288    5.8150   -2.8275 O   0  0  0  0  0  2           0  0  0
    0.5144    0.7915   -4.9878 O   0  0  0  0  0  2           0  0  0
   -0.1999    1.4161   -2.8834 O   0  0  0  0  0  2           0  0  0
    0.7430    6.5475   -1.1093 O   0  0  0  0  0  2           0  0  0
    0.0000   -0.0000    0.0000 N   0  0  0  0  0  3           0  0  0
   -2.0836    0.0005    0.7718 N   0  0  0  0  0  3           0  0  0
   -2.0993    0.0105   -0.5980 C   0  0  0  0  0  4           0  0  0
   -0.8119    0.0000    1.1177 C   0  0  0  0  0  4           0  0  0
   -0.8166    0.0194   -1.1139 C   0  0  0  0  0  4           0  0  0
    3.5774    5.3896    0.0306 C   0  0  0  0  0  4           0  0  0
    3.0365    4.0243    0.0219 C   0  0  0  0  0  4           0  0  0
    3.1014    6.4242   -0.8050 C   0  0  0  0  0  4           0  0  0
    1.9918    1.3967    0.0000 C   0  0  0  0  0  4           0  0  0
    4.6491    5.6988    0.8927 C   0  0  0  0  0  4           0  0  0
    1.9701    3.6691    0.8613 C   0  0  0  0  0  4           0  0  0
    3.5755    3.0446   -0.8250 C   0  0  0  0  0  4           0  0  0
    3.6802    7.7031   -0.7777 C   0  0  0  0  0  4           0  0  0
    1.4552    2.3697    0.8522 C   0  0  0  0  0  4           0  0  0
    3.0610    1.7450   -0.8342 C   0  0  0  0  0  4           0  0  0
    5.2253    6.9714    0.9174 C   0  0  0  0  0  4           0  0  0
    4.7434    7.9712    0.0801 C   0  0  0  0  0  4           0  0  0
    1.9279    6.2285   -1.6813 C   0  0  0  0  0  4           0  0  0
    0.2361    1.6422   -4.1531 C   0  0  0  0  0  4           0  0  0
   -0.3373    0.0390   -2.5151 C   0  0  0  0  0  4           0  0  0
    1.4497   -0.0000    0.0000 C   0  0  0  0  0  4           0  0  0
   -0.3193   -0.0056    2.5204 C   0  0  0  0  0  4           0  0  0
   -0.1324   -1.4186    3.0634 C   0  0  0  0  0  4           0  0  0
    0.3734   -1.4340    4.5038 C   0  0  0  0  0  4           0  0  0
    0.3013    3.1175   -4.4098 C   0  0  0  0  0  4           0  0  0
    0.5492   -2.8541    5.0154 C   0  0  0  0  0  4           0  0  0
  1  8  1  0     0  0
  2 23  2  0     0  0
  3 24  2  0     0  0
  4 24  1  0     0  0
  4 25  1  0     0  0
  5 23  1  0     0  0
  6  9  1  0     0  0
  6 10  1  0     0  0
  6 26  1  0     0  0
  7  8  1  0     0  0
  7  9  2  0     0  0
  8 10  2  0     0  0
  9 27  1  0     0  0
 10 25  1  0     0  0
 11 12  1  0     0  0
 11 13  1  0     0  0
 11 15  2  0     0  0
 12 16  2  0     0  0
 12 17  1  0     0  0
 13 18  2  0     0  0
 13 23  1  0     0  0
 14 19  2  0     0  0
 14 20  1  0     0  0
 14 26  1  0     0  0
 15 21  1  0     0  0
 16 19  1  0     0  0
 17 20  2  0     0  0
 18 22  1  0     0  0
 21 22  2  0     0  0
 24 30  1  0     0  0
 27 28  1  0     0  0
 28 29  1  0     0  0
 29 31  1  0     0  0
M  END
> <standard_type>
pIC50

> <# Confs.>
25

> <canonical_smiles>
CCCCC1=NC(Cl)=C(COC(C)=O)N1CC2=CC=C(C3=CC=CC=C3C(O)=O)C=C2

> <standard_relation>
=

> <Publication_ID>
nan

> <predicted_activity_value>
6.920818753952375

> <actual_activity_value>
5.47755576649368

> <Compound>
18

> <standard_units>
nM

> hash
17930109462890095984

$$$$
18_
XXILIB    08252103513D 0   0.00000     0.00000

 31 33  0     1  0            999 V2000
   -3.5602    0.0114   -1.4766 Cl  0  0  0  0  0  1           0  0  0
    6.5480   -4.0109   -0.0139 O   0  0  0  0  0  2           0  0  0
    0.5099   -0.6441   -5.0094 O   0  0  0  0  0  2           0  0  0
   -0.2086   -1.3273   -2.9248 O   0  0  0  0  0  2           0  0  0
    5.9210   -4.4765    2.1150 O   0  0  0  0  0  2           0  0  0
    0.0000   -0.0000    0.0000 N   0  0  0  0  0  3           0  0  0
   -2.0836    0.0005    0.7718 N   0  0  0  0  0  3           0  0  0
   -2.0993    0.0105   -0.5980 C   0  0  0  0  0  4           0  0  0
   -0.8119    0.0000    1.1177 C   0  0  0  0  0  4           0  0  0
   -0.8166    0.0194   -1.1139 C   0  0  0  0  0  4           0  0  0
    3.5746   -5.3906    0.0336 C   0  0  0  0  0  4           0  0  0
    3.0352   -4.0248    0.0233 C   0  0  0  0  0  4           0  0  0
    4.9207   -5.6973    0.3321 C   0  0  0  0  0  4           0  0  0
    1.9918   -1.3967    0.0000 C   0  0  0  0  0  4           0  0  0
    2.7261   -6.4670   -0.2968 C   0  0  0  0  0  4           0  0  0
    3.5583   -3.0527   -0.8424 C   0  0  0  0  0  4           0  0  0
    1.9858   -3.6616    0.8803 C   0  0  0  0  0  4           0  0  0
    5.3892   -7.0203    0.2933 C   0  0  0  0  0  4           0  0  0
    3.0442   -1.7530   -0.8522 C   0  0  0  0  0  4           0  0  0
    1.4716   -2.3619    0.8708 C   0  0  0  0  0  4           0  0  0
    3.1944   -7.7829   -0.3369 C   0  0  0  0  0  4           0  0  0
    4.5257   -8.0583   -0.0456 C   0  0  0  0  0  4           0  0  0
    5.8688   -4.6537    0.7738 C   0  0  0  0  0  4           0  0  0
    0.2262   -1.5178   -4.2007 C   0  0  0  0  0  4           0  0  0
   -0.3373    0.0390   -2.5151 C   0  0  0  0  0  4           0  0  0
    1.4497    0.0000   -0.0000 C   0  0  0  0  0  4           0  0  0
   -0.3193   -0.0056    2.5204 C   0  0  0  0  0  4           0  0  0
   -1.0721   -1.0028    3.3951 C   0  0  0  0  0  4           0  0  0
   -0.5726   -1.0153    4.8377 C   0  0  0  0  0  4           0  0  0
    0.3445   -2.9856   -4.4804 C   0  0  0  0  0  4           0  0  0
   -1.3414   -2.0175    5.6828 C   0  0  0  0  0  4           0  0  0
  1  8  1  0     0  0
  2 23  2  0     0  0
  3 24  2  0     0  0
  4 24  1  0     0  0
  4 25  1  0     0  0
  5 23  1  0     0  0
  6  9  1  0     0  0
  6 10  1  0     0  0
  6 26  1  0     0  0
  7  8  1  0     0  0
  7  9  2  0     0  0
  8 10  2  0     0  0
  9 27  1  0     0  0
 10 25  1  0     0  0
 11 12  1  0     0  0
 11 13  1  0     0  0
 11 15  2  0     0  0
 12 16  2  0     0  0
 12 17  1  0     0  0
 13 18  2  0     0  0
 13 23  1  0     0  0
 14 19  2  0     0  0
 14 20  1  0     0  0
 14 26  1  0     0  0
 15 21  1  0     0  0
 16 19  1  0     0  0
 17 20  2  0     0  0
 18 22  1  0     0  0
 21 22  2  0     0  0
 24 30  1  0     0  0
 27 28  1  0     0  0
 28 29  1  0     0  0
 29 31  1  0     0  0
M  END
> <standard_type>
pIC50

> <# Confs.>
25

> <canonical_smiles>
CCCCC1=NC(Cl)=C(COC(C)=O)N1CC2=CC=C(C3=CC=CC=C3C(O)=O)C=C2

> <standard_relation>
=

> <Publication_ID>
nan

> <predicted_activity_value>
6.920818753952375

> <actual_activity_value>
5.47755576649368

> <Compound>
18

> <standard_units>
nM

> hash
17930109462890095984

$$$$
18_
XXILIB    08252103513D 0   0.00000     0.00000

 31 33  0     1  0            999 V2000
   -3.5602    0.0114   -1.4766 Cl  0  0  0  0  0  1           0  0  0
    5.4297   -4.6585    2.5398 O   0  0  0  0  0  2           0  0  0
    0.0335    0.5852   -5.1552 O   0  0  0  0  0  2           0  0  0
   -1.1190    1.0220   -3.2033 O   0  0  0  0  0  2           0  0  0
    6.4442   -4.1261    0.5829 O   0  0  0  0  0  2           0  0  0
    0.0000   -0.0000    0.0000 N   0  0  0  0  0  3           0  0  0
   -2.0836    0.0005    0.7718 N   0  0  0  0  0  3           0  0  0
   -2.0993    0.0105   -0.5980 C   0  0  0  0  0  4           0  0  0
   -0.8119   -0.0000    1.1177 C   0  0  0  0  0  4           0  0  0
   -0.8166    0.0194   -1.1139 C   0  0  0  0  0  4           0  0  0
    3.5038   -5.4181   -0.0021 C   0  0  0  0  0  4           0  0  0
    2.9850   -4.0443   -0.0010 C   0  0  0  0  0  4           0  0  0
    4.7388   -5.7878    0.5753 C   0  0  0  0  0  4           0  0  0
    1.9918   -1.3967    0.0000 C   0  0  0  0  0  4           0  0  0
    2.7573   -6.4341   -0.6330 C   0  0  0  0  0  4           0  0  0
    2.7429   -3.3692    1.2047 C   0  0  0  0  0  4           0  0  0
    2.7185   -3.3772   -1.2058 C   0  0  0  0  0  4           0  0  0
    5.2007   -7.1123    0.5143 C   0  0  0  0  0  4           0  0  0
    2.2497   -2.0614    1.2052 C   0  0  0  0  0  4           0  0  0
    2.2251   -2.0695   -1.2056 C   0  0  0  0  0  4           0  0  0
    3.2193   -7.7514   -0.6946 C   0  0  0  0  0  4           0  0  0
    4.4416   -8.0888   -0.1245 C   0  0  0  0  0  4           0  0  0
    5.5554   -4.8180    1.3341 C   0  0  0  0  0  4           0  0  0
   -0.8226    1.1882   -4.5216 C   0  0  0  0  0  4           0  0  0
   -0.3373    0.0390   -2.5151 C   0  0  0  0  0  4           0  0  0
    1.4497    0.0000   -0.0000 C   0  0  0  0  0  4           0  0  0
   -0.3193   -0.0056    2.5204 C   0  0  0  0  0  4           0  0  0
   -1.0646    0.9923    3.4005 C   0  0  0  0  0  4           0  0  0
   -0.5651    0.9933    4.8432 C   0  0  0  0  0  4           0  0  0
   -1.7342    2.2173   -5.1186 C   0  0  0  0  0  4           0  0  0
   -1.3264    1.9966    5.6937 C   0  0  0  0  0  4           0  0  0
  1  8  1  0     0  0
  2 23  2  0     0  0
  3 24  2  0     0  0
  4 24  1  0     0  0
  4 25  1  0     0  0
  5 23  1  0     0  0
  6  9  1  0     0  0
  6 10  1  0     0  0
  6 26  1  0     0  0
  7  8  1  0     0  0
  7  9  2  0     0  0
  8 10  2  0     0  0
  9 27  1  0     0  0
 10 25  1  0     0  0
 11 12  1  0     0  0
 11 13  1  0     0  0
 11 15  2  0     0  0
 12 16  2  0     0  0
 12 17  1  0     0  0
 13 18  2  0     0  0
 13 23  1  0     0  0
 14 19  2  0     0  0
 14 20  1  0     0  0
 14 26  1  0     0  0
 15 21  1  0     0  0
 16 19  1  0     0  0
 17 20  2  0     0  0
 18 22  1  0     0  0
 21 22  2  0     0  0
 24 30  1  0     0  0
 27 28  1  0     0  0
 28 29  1  0     0  0
 29 31  1  0     0  0
M  END
> <standard_type>
pIC50

> <# Confs.>
25

> <canonical_smiles>
CCCCC1=NC(Cl)=C(COC(C)=O)N1CC2=CC=C(C3=CC=CC=C3C(O)=O)C=C2

> <standard_relation>
=

> <Publication_ID>
nan

> <predicted_activity_value>
6.920818753952375

> <actual_activity_value>
5.47755576649368

> <Compound>
18

> <standard_units>
nM

> hash
17930109462890095984

$$$$
18_
XXILIB    08252103513D 0   0.00000     0.00000

 31 33  0     1  0            999 V2000
   -3.5602    0.0114   -1.4766 Cl  0  0  0  0  0  1           0  0  0
    6.5480   -4.0109   -0.0139 O   0  0  0  0  0  2           0  0  0
    0.5144    0.7915   -4.9878 O   0  0  0  0  0  2           0  0  0
   -0.1999    1.4161   -2.8834 O   0  0  0  0  0  2           0  0  0
    5.9210   -4.4765    2.1150 O   0  0  0  0  0  2           0  0  0
    0.0000   -0.0000    0.0000 N   0  0  0  0  0  3           0  0  0
   -2.0836    0.0005    0.7718 N   0  0  0  0  0  3           0  0  0
   -2.0993    0.0105   -0.5980 C   0  0  0  0  0  4           0  0  0
   -0.8119    0.0000    1.1177 C   0  0  0  0  0  4           0  0  0
   -0.8166    0.0194   -1.1139 C   0  0  0  0  0  4           0  0  0
    3.5746   -5.3906    0.0336 C   0  0  0  0  0  4           0  0  0
    3.0352   -4.0248    0.0233 C   0  0  0  0  0  4           0  0  0
    4.9207   -5.6973    0.3321 C   0  0  0  0  0  4           0  0  0
    1.9918   -1.3967    0.0000 C   0  0  0  0  0  4           0  0  0
    2.7261   -6.4670   -0.2968 C   0  0  0  0  0  4           0  0  0
    3.5583   -3.0527   -0.8424 C   0  0  0  0  0  4           0  0  0
    1.9858   -3.6616    0.8803 C   0  0  0  0  0  4           0  0  0
    5.3892   -7.0203    0.2933 C   0  0  0  0  0  4           0  0  0
    3.0442   -1.7530   -0.8522 C   0  0  0  0  0  4           0  0  0
    1.4716   -2.3619    0.8708 C   0  0  0  0  0  4           0  0  0
    3.1944   -7.7829   -0.3369 C   0  0  0  0  0  4           0  0  0
    4.5257   -8.0583   -0.0456 C   0  0  0  0  0  4           0  0  0
    5.8688   -4.6537    0.7738 C   0  0  0  0  0  4           0  0  0
    0.2361    1.6422   -4.1531 C   0  0  0  0  0  4           0  0  0
   -0.3373    0.0390   -2.5151 C   0  0  0  0  0  4           0  0  0
    1.4497    0.0000   -0.0000 C   0  0  0  0  0  4           0  0  0
   -0.3193   -0.0056    2.5204 C   0  0  0  0  0  4           0  0  0
   -1.0646    0.9923    3.4005 C   0  0  0  0  0  4           0  0  0
   -0.5651    0.9933    4.8432 C   0  0  0  0  0  4           0  0  0
    0.3013    3.1175   -4.4098 C   0  0  0  0  0  4           0  0  0
   -1.3264    1.9966    5.6937 C   0  0  0  0  0  4           0  0  0
  1  8  1  0     0  0
  2 23  2  0     0  0
  3 24  2  0     0  0
  4 24  1  0     0  0
  4 25  1  0     0  0
  5 23  1  0     0  0
  6  9  1  0     0  0
  6 10  1  0     0  0
  6 26  1  0     0  0
  7  8  1  0     0  0
  7  9  2  0     0  0
  8 10  2  0     0  0
  9 27  1  0     0  0
 10 25  1  0     0  0
 11 12  1  0     0  0
 11 13  1  0     0  0
 11 15  2  0     0  0
 12 16  2  0     0  0
 12 17  1  0     0  0
 13 18  2  0     0  0
 13 23  1  0     0  0
 14 19  2  0     0  0
 14 20  1  0     0  0
 14 26  1  0     0  0
 15 21  1  0     0  0
 16 19  1  0     0  0
 17 20  2  0     0  0
 18 22  1  0     0  0
 21 22  2  0     0  0
 24 30  1  0     0  0
 27 28  1  0     0  0
 28 29  1  0     0  0
 29 31  1  0     0  0
M  END
> <standard_type>
pIC50

> <# Confs.>
25

> <canonical_smiles>
CCCCC1=NC(Cl)=C(COC(C)=O)N1CC2=CC=C(C3=CC=CC=C3C(O)=O)C=C2

> <standard_relation>
=

> <Publication_ID>
nan

> <predicted_activity_value>
6.920818753952375

> <actual_activity_value>
5.47755576649368

> <Compound>
18

> <standard_units>
nM

> hash
17930109462890095984

$$$$
18_
XXILIB    08252103513D 0   0.00000     0.00000

 31 33  0     1  0            999 V2000
   -3.5602    0.0114   -1.4766 Cl  0  0  0  0  0  1           0  0  0
    5.4297   -4.6585    2.5398 O   0  0  0  0  0  2           0  0  0
    0.5099   -0.6441   -5.0094 O   0  0  0  0  0  2           0  0  0
   -0.2086   -1.3273   -2.9248 O   0  0  0  0  0  2           0  0  0
    6.4442   -4.1261    0.5829 O   0  0  0  0  0  2           0  0  0
    0.0000   -0.0000    0.0000 N   0  0  0  0  0  3           0  0  0
   -2.0836    0.0005    0.7718 N   0  0  0  0  0  3           0  0  0
   -2.0993    0.0105   -0.5980 C   0  0  0  0  0  4           0  0  0
   -0.8119    0.0000    1.1177 C   0  0  0  0  0  4           0  0  0
   -0.8166    0.0194   -1.1139 C   0  0  0  0  0  4           0  0  0
    3.5038   -5.4181   -0.0021 C   0  0  0  0  0  4           0  0  0
    2.9850   -4.0443   -0.0010 C   0  0  0  0  0  4           0  0  0
    4.7388   -5.7878    0.5753 C   0  0  0  0  0  4           0  0  0
    1.9918   -1.3967    0.0000 C   0  0  0  0  0  4           0  0  0
    2.7573   -6.4341   -0.6330 C   0  0  0  0  0  4           0  0  0
    2.7429   -3.3692    1.2047 C   0  0  0  0  0  4           0  0  0
    2.7185   -3.3772   -1.2058 C   0  0  0  0  0  4           0  0  0
    5.2007   -7.1123    0.5143 C   0  0  0  0  0  4           0  0  0
    2.2497   -2.0614    1.2052 C   0  0  0  0  0  4           0  0  0
    2.2251   -2.0695   -1.2056 C   0  0  0  0  0  4           0  0  0
    3.2193   -7.7514   -0.6946 C   0  0  0  0  0  4           0  0  0
    4.4416   -8.0888   -0.1245 C   0  0  0  0  0  4           0  0  0
    5.5554   -4.8180    1.3341 C   0  0  0  0  0  4           0  0  0
    0.2262   -1.5178   -4.2007 C   0  0  0  0  0  4           0  0  0
   -0.3373    0.0390   -2.5151 C   0  0  0  0  0  4           0  0  0
    1.4497    0.0000   -0.0000 C   0  0  0  0  0  4           0  0  0
   -0.3193   -0.0056    2.5204 C   0  0  0  0  0  4           0  0  0
   -1.0646    0.9923    3.4005 C   0  0  0  0  0  4           0  0  0
   -0.5651    0.9933    4.8432 C   0  0  0  0  0  4           0  0  0
    0.3445   -2.9856   -4.4804 C   0  0  0  0  0  4           0  0  0
   -1.3264    1.9966    5.6937 C   0  0  0  0  0  4           0  0  0
  1  8  1  0     0  0
  2 23  2  0     0  0
  3 24  2  0     0  0
  4 24  1  0     0  0
  4 25  1  0     0  0
  5 23  1  0     0  0
  6  9  1  0     0  0
  6 10  1  0     0  0
  6 26  1  0     0  0
  7  8  1  0     0  0
  7  9  2  0     0  0
  8 10  2  0     0  0
  9 27  1  0     0  0
 10 25  1  0     0  0
 11 12  1  0     0  0
 11 13  1  0     0  0
 11 15  2  0     0  0
 12 16  2  0     0  0
 12 17  1  0     0  0
 13 18  2  0     0  0
 13 23  1  0     0  0
 14 19  2  0     0  0
 14 20  1  0     0  0
 14 26  1  0     0  0
 15 21  1  0     0  0
 16 19  1  0     0  0
 17 20  2  0     0  0
 18 22  1  0     0  0
 21 22  2  0     0  0
 24 30  1  0     0  0
 27 28  1  0     0  0
 28 29  1  0     0  0
 29 31  1  0     0  0
M  END
> <standard_type>
pIC50

> <# Confs.>
25

> <canonical_smiles>
CCCCC1=NC(Cl)=C(COC(C)=O)N1CC2=CC=C(C3=CC=CC=C3C(O)=O)C=C2

> <standard_relation>
=

> <Publication_ID>
nan

> <predicted_activity_value>
6.920818753952375

> <actual_activity_value>
5.47755576649368

> <Compound>
18

> <standard_units>
nM

> hash
17930109462890095984

$$$$
18_
XXILIB    08252103513D 0   0.00000     0.00000

 31 33  0     1  0            999 V2000
   -3.5602    0.0114   -1.4766 Cl  0  0  0  0  0  1           0  0  0
    3.4570    5.2105    3.3018 O   0  0  0  0  0  2           0  0  0
    0.5144    0.7915   -4.9878 O   0  0  0  0  0  2           0  0  0
   -0.1999    1.4161   -2.8834 O   0  0  0  0  0  2           0  0  0
    5.5166    4.6334    2.5488 O   0  0  0  0  0  2           0  0  0
    0.0000   -0.0000    0.0000 N   0  0  0  0  0  3           0  0  0
   -2.0836    0.0005    0.7718 N   0  0  0  0  0  3           0  0  0
   -2.0993    0.0105   -0.5980 C   0  0  0  0  0  4           0  0  0
   -0.8119    0.0000    1.1177 C   0  0  0  0  0  4           0  0  0
   -0.8166    0.0194   -1.1139 C   0  0  0  0  0  4           0  0  0
    3.5774    5.3896    0.0306 C   0  0  0  0  0  4           0  0  0
    3.0365    4.0243    0.0219 C   0  0  0  0  0  4           0  0  0
    4.1353    6.0021    1.1746 C   0  0  0  0  0  4           0  0  0
    1.9918    1.3967    0.0000 C   0  0  0  0  0  4           0  0  0
    3.5214    6.1584   -1.1498 C   0  0  0  0  0  4           0  0  0
    1.9701    3.6691    0.8613 C   0  0  0  0  0  4           0  0  0
    3.5755    3.0446   -0.8250 C   0  0  0  0  0  4           0  0  0
    4.6067    7.3240    1.1327 C   0  0  0  0  0  4           0  0  0
    1.4552    2.3697    0.8522 C   0  0  0  0  0  4           0  0  0
    3.0610    1.7450   -0.8342 C   0  0  0  0  0  4           0  0  0
    3.9891    7.4745   -1.1893 C   0  0  0  0  0  4           0  0  0
    4.5278    8.0574   -0.0479 C   0  0  0  0  0  4           0  0  0
    4.3192    5.2551    2.4360 C   0  0  0  0  0  4           0  0  0
    0.2361    1.6422   -4.1531 C   0  0  0  0  0  4           0  0  0
   -0.3373    0.0390   -2.5151 C   0  0  0  0  0  4           0  0  0
    1.4497   -0.0000    0.0000 C   0  0  0  0  0  4           0  0  0
   -0.3193   -0.0056    2.5204 C   0  0  0  0  0  4           0  0  0
   -1.0721   -1.0028    3.3951 C   0  0  0  0  0  4           0  0  0
   -0.5726   -1.0153    4.8377 C   0  0  0  0  0  4           0  0  0
    0.3013    3.1175   -4.4098 C   0  0  0  0  0  4           0  0  0
   -1.3414   -2.0175    5.6828 C   0  0  0  0  0  4           0  0  0
  1  8  1  0     0  0
  2 23  2  0     0  0
  3 24  2  0     0  0
  4 24  1  0     0  0
  4 25  1  0     0  0
  5 23  1  0     0  0
  6  9  1  0     0  0
  6 10  1  0     0  0
  6 26  1  0     0  0
  7  8  1  0     0  0
  7  9  2  0     0  0
  8 10  2  0     0  0
  9 27  1  0     0  0
 10 25  1  0     0  0
 11 12  1  0     0  0
 11 13  1  0     0  0
 11 15  2  0     0  0
 12 16  2  0     0  0
 12 17  1  0     0  0
 13 18  2  0     0  0
 13 23  1  0     0  0
 14 19  2  0     0  0
 14 20  1  0     0  0
 14 26  1  0     0  0
 15 21  1  0     0  0
 16 19  1  0     0  0
 17 20  2  0     0  0
 18 22  1  0     0  0
 21 22  2  0     0  0
 24 30  1  0     0  0
 27 28  1  0     0  0
 28 29  1  0     0  0
 29 31  1  0     0  0
M  END
> <standard_type>
pIC50

> <# Confs.>
25

> <canonical_smiles>
CCCCC1=NC(Cl)=C(COC(C)=O)N1CC2=CC=C(C3=CC=CC=C3C(O)=O)C=C2

> <standard_relation>
=

> <Publication_ID>
nan

> <predicted_activity_value>
6.920818753952375

> <actual_activity_value>
5.47755576649368

> <Compound>
18

> <standard_units>
nM

> hash
17930109462890095984

$$$$
18_
XXILIB    08252103513D 0   0.00000     0.00000

 31 33  0     1  0            999 V2000
   -3.5602    0.0114   -1.4766 Cl  0  0  0  0  0  1           0  0  0
    5.4297   -4.6585    2.5398 O   0  0  0  0  0  2           0  0  0
    0.0335    0.5852   -5.1552 O   0  0  0  0  0  2           0  0  0
   -1.1190    1.0220   -3.2033 O   0  0  0  0  0  2           0  0  0
    6.4442   -4.1261    0.5829 O   0  0  0  0  0  2           0  0  0
    0.0000   -0.0000    0.0000 N   0  0  0  0  0  3           0  0  0
   -2.0836    0.0005    0.7718 N   0  0  0  0  0  3           0  0  0
   -2.0993    0.0105   -0.5980 C   0  0  0  0  0  4           0  0  0
   -0.8119   -0.0000    1.1177 C   0  0  0  0  0  4           0  0  0
   -0.8166    0.0194   -1.1139 C   0  0  0  0  0  4           0  0  0
    3.5038   -5.4181   -0.0021 C   0  0  0  0  0  4           0  0  0
    2.9850   -4.0443   -0.0010 C   0  0  0  0  0  4           0  0  0
    4.7388   -5.7878    0.5753 C   0  0  0  0  0  4           0  0  0
    1.9918   -1.3967    0.0000 C   0  0  0  0  0  4           0  0  0
    2.7573   -6.4341   -0.6330 C   0  0  0  0  0  4           0  0  0
    2.7429   -3.3692    1.2047 C   0  0  0  0  0  4           0  0  0
    2.7185   -3.3772   -1.2058 C   0  0  0  0  0  4           0  0  0
    5.2007   -7.1123    0.5143 C   0  0  0  0  0  4           0  0  0
    2.2497   -2.0614    1.2052 C   0  0  0  0  0  4           0  0  0
    2.2251   -2.0695   -1.2056 C   0  0  0  0  0  4           0  0  0
    3.2193   -7.7514   -0.6946 C   0  0  0  0  0  4           0  0  0
    4.4416   -8.0888   -0.1245 C   0  0  0  0  0  4           0  0  0
    5.5554   -4.8180    1.3341 C   0  0  0  0  0  4           0  0  0
   -0.8226    1.1882   -4.5216 C   0  0  0  0  0  4           0  0  0
   -0.3373    0.0390   -2.5151 C   0  0  0  0  0  4           0  0  0
    1.4497    0.0000   -0.0000 C   0  0  0  0  0  4           0  0  0
   -0.3193   -0.0056    2.5204 C   0  0  0  0  0  4           0  0  0
   -1.0646    0.9923    3.4005 C   0  0  0  0  0  4           0  0  0
   -0.9293    2.4302    2.9057 C   0  0  0  0  0  4           0  0  0
   -1.7342    2.2173   -5.1186 C   0  0  0  0  0  4           0  0  0
   -1.6819    3.3992    3.8024 C   0  0  0  0  0  4           0  0  0
  1  8  1  0     0  0
  2 23  2  0     0  0
  3 24  2  0     0  0
  4 24  1  0     0  0
  4 25  1  0     0  0
  5 23  1  0     0  0
  6  9  1  0     0  0
  6 10  1  0     0  0
  6 26  1  0     0  0
  7  8  1  0     0  0
  7  9  2  0     0  0
  8 10  2  0     0  0
  9 27  1  0     0  0
 10 25  1  0     0  0
 11 12  1  0     0  0
 11 13  1  0     0  0
 11 15  2  0     0  0
 12 16  2  0     0  0
 12 17  1  0     0  0
 13 18  2  0     0  0
 13 23  1  0     0  0
 14 19  2  0     0  0
 14 20  1  0     0  0
 14 26  1  0     0  0
 15 21  1  0     0  0
 16 19  1  0     0  0
 17 20  2  0     0  0
 18 22  1  0     0  0
 21 22  2  0     0  0
 24 30  1  0     0  0
 27 28  1  0     0  0
 28 29  1  0     0  0
 29 31  1  0     0  0
M  END
> <standard_type>
pIC50

> <# Confs.>
25

> <canonical_smiles>
CCCCC1=NC(Cl)=C(COC(C)=O)N1CC2=CC=C(C3=CC=CC=C3C(O)=O)C=C2

> <standard_relation>
=

> <Publication_ID>
nan

> <predicted_activity_value>
6.920818753952375

> <actual_activity_value>
5.47755576649368

> <Compound>
18

> <standard_units>
nM

> hash
17930109462890095984

$$$$
18_
XXILIB    08252103513D 0   0.00000     0.00000

 31 33  0     1  0            999 V2000
   -3.5602    0.0114   -1.4766 Cl  0  0  0  0  0  1           0  0  0
    5.9550   -3.8911   -1.2970 O   0  0  0  0  0  2           0  0  0
    0.5144    0.7915   -4.9878 O   0  0  0  0  0  2           0  0  0
   -0.1999    1.4161   -2.8834 O   0  0  0  0  0  2           0  0  0
    5.2681   -5.1311   -3.0669 O   0  0  0  0  0  2           0  0  0
    0.0000   -0.0000    0.0000 N   0  0  0  0  0  3           0  0  0
   -2.0836    0.0005    0.7718 N   0  0  0  0  0  3           0  0  0
   -2.0993    0.0105   -0.5980 C   0  0  0  0  0  4           0  0  0
   -0.8119    0.0000    1.1177 C   0  0  0  0  0  4           0  0  0
   -0.8166    0.0194   -1.1139 C   0  0  0  0  0  4           0  0  0
    3.5774   -5.3896   -0.0306 C   0  0  0  0  0  4           0  0  0
    3.0365   -4.0243   -0.0219 C   0  0  0  0  0  4           0  0  0
    4.6291   -5.8084   -0.8754 C   0  0  0  0  0  4           0  0  0
    1.9918   -1.3967   -0.0000 C   0  0  0  0  0  4           0  0  0
    3.0118   -6.3582    0.8235 C   0  0  0  0  0  4           0  0  0
    1.9701   -3.6691   -0.8613 C   0  0  0  0  0  4           0  0  0
    3.5755   -3.0446    0.8250 C   0  0  0  0  0  4           0  0  0
    5.0832   -7.1369   -0.8645 C   0  0  0  0  0  4           0  0  0
    1.4552   -2.3697   -0.8522 C   0  0  0  0  0  4           0  0  0
    3.0610   -1.7450    0.8342 C   0  0  0  0  0  4           0  0  0
    3.4635   -7.6804    0.8317 C   0  0  0  0  0  4           0  0  0
    4.4957   -8.0697   -0.0143 C   0  0  0  0  0  4           0  0  0
    5.3464   -4.8526   -1.7443 C   0  0  0  0  0  4           0  0  0
    0.2361    1.6422   -4.1531 C   0  0  0  0  0  4           0  0  0
   -0.3373    0.0390   -2.5151 C   0  0  0  0  0  4           0  0  0
    1.4497    0.0000   -0.0000 C   0  0  0  0  0  4           0  0  0
   -0.3193   -0.0056    2.5204 C   0  0  0  0  0  4           0  0  0
   -0.1324   -1.4186    3.0634 C   0  0  0  0  0  4           0  0  0
    0.3734   -1.4340    4.5038 C   0  0  0  0  0  4           0  0  0
    0.3013    3.1175   -4.4098 C   0  0  0  0  0  4           0  0  0
    0.5492   -2.8541    5.0154 C   0  0  0  0  0  4           0  0  0
  1  8  1  0     0  0
  2 23  2  0     0  0
  3 24  2  0     0  0
  4 24  1  0     0  0
  4 25  1  0     0  0
  5 23  1  0     0  0
  6  9  1  0     0  0
  6 10  1  0     0  0
  6 26  1  0     0  0
  7  8  1  0     0  0
  7  9  2  0     0  0
  8 10  2  0     0  0
  9 27  1  0     0  0
 10 25  1  0     0  0
 11 12  1  0     0  0
 11 13  1  0     0  0
 11 15  2  0     0  0
 12 16  2  0     0  0
 12 17  1  0     0  0
 13 18  2  0     0  0
 13 23  1  0     0  0
 14 19  2  0     0  0
 14 20  1  0     0  0
 14 26  1  0     0  0
 15 21  1  0     0  0
 16 19  1  0     0  0
 17 20  2  0     0  0
 18 22  1  0     0  0
 21 22  2  0     0  0
 24 30  1  0     0  0
 27 28  1  0     0  0
 28 29  1  0     0  0
 29 31  1  0     0  0
M  END
> <standard_type>
pIC50

> <# Confs.>
25

> <canonical_smiles>
CCCCC1=NC(Cl)=C(COC(C)=O)N1CC2=CC=C(C3=CC=CC=C3C(O)=O)C=C2

> <standard_relation>
=

> <Publication_ID>
nan

> <predicted_activity_value>
6.920818753952375

> <actual_activity_value>
5.47755576649368

> <Compound>
18

> <standard_units>
nM

> hash
17930109462890095984

$$$$
18_
XXILIB    08252103513D 0   0.00000     0.00000

 31 33  0     1  0            999 V2000
   -3.5602    0.0114   -1.4766 Cl  0  0  0  0  0  1           0  0  0
    6.5480   -4.0109   -0.0139 O   0  0  0  0  0  2           0  0  0
    0.5144    0.7915   -4.9878 O   0  0  0  0  0  2           0  0  0
   -0.1999    1.4161   -2.8834 O   0  0  0  0  0  2           0  0  0
    5.9210   -4.4765    2.1150 O   0  0  0  0  0  2           0  0  0
    0.0000   -0.0000    0.0000 N   0  0  0  0  0  3           0  0  0
   -2.0836    0.0005    0.7718 N   0  0  0  0  0  3           0  0  0
   -2.0993    0.0105   -0.5980 C   0  0  0  0  0  4           0  0  0
   -0.8119    0.0000    1.1177 C   0  0  0  0  0  4           0  0  0
   -0.8166    0.0194   -1.1139 C   0  0  0  0  0  4           0  0  0
    3.5746   -5.3906    0.0336 C   0  0  0  0  0  4           0  0  0
    3.0352   -4.0248    0.0233 C   0  0  0  0  0  4           0  0  0
    4.9207   -5.6973    0.3321 C   0  0  0  0  0  4           0  0  0
    1.9918   -1.3967    0.0000 C   0  0  0  0  0  4           0  0  0
    2.7261   -6.4670   -0.2968 C   0  0  0  0  0  4           0  0  0
    3.5583   -3.0527   -0.8424 C   0  0  0  0  0  4           0  0  0
    1.9858   -3.6616    0.8803 C   0  0  0  0  0  4           0  0  0
    5.3892   -7.0203    0.2933 C   0  0  0  0  0  4           0  0  0
    3.0442   -1.7530   -0.8522 C   0  0  0  0  0  4           0  0  0
    1.4716   -2.3619    0.8708 C   0  0  0  0  0  4           0  0  0
    3.1944   -7.7829   -0.3369 C   0  0  0  0  0  4           0  0  0
    4.5257   -8.0583   -0.0456 C   0  0  0  0  0  4           0  0  0
    5.8688   -4.6537    0.7738 C   0  0  0  0  0  4           0  0  0
    0.2361    1.6422   -4.1531 C   0  0  0  0  0  4           0  0  0
   -0.3373    0.0390   -2.5151 C   0  0  0  0  0  4           0  0  0
    1.4497    0.0000   -0.0000 C   0  0  0  0  0  4           0  0  0
   -0.3193   -0.0056    2.5204 C   0  0  0  0  0  4           0  0  0
   -1.0646    0.9923    3.4005 C   0  0  0  0  0  4           0  0  0
   -0.9293    2.4302    2.9057 C   0  0  0  0  0  4           0  0  0
    0.3013    3.1175   -4.4098 C   0  0  0  0  0  4           0  0  0
   -1.6819    3.3992    3.8024 C   0  0  0  0  0  4           0  0  0
  1  8  1  0     0  0
  2 23  2  0     0  0
  3 24  2  0     0  0
  4 24  1  0     0  0
  4 25  1  0     0  0
  5 23  1  0     0  0
  6  9  1  0     0  0
  6 10  1  0     0  0
  6 26  1  0     0  0
  7  8  1  0     0  0
  7  9  2  0     0  0
  8 10  2  0     0  0
  9 27  1  0     0  0
 10 25  1  0     0  0
 11 12  1  0     0  0
 11 13  1  0     0  0
 11 15  2  0     0  0
 12 16  2  0     0  0
 12 17  1  0     0  0
 13 18  2  0     0  0
 13 23  1  0     0  0
 14 19  2  0     0  0
 14 20  1  0     0  0
 14 26  1  0     0  0
 15 21  1  0     0  0
 16 19  1  0     0  0
 17 20  2  0     0  0
 18 22  1  0     0  0
 21 22  2  0     0  0
 24 30  1  0     0  0
 27 28  1  0     0  0
 28 29  1  0     0  0
 29 31  1  0     0  0
M  END
> <standard_type>
pIC50

> <# Confs.>
25

> <canonical_smiles>
CCCCC1=NC(Cl)=C(COC(C)=O)N1CC2=CC=C(C3=CC=CC=C3C(O)=O)C=C2

> <standard_relation>
=

> <Publication_ID>
nan

> <predicted_activity_value>
6.920818753952375

> <actual_activity_value>
5.47755576649368

> <Compound>
18

> <standard_units>
nM

> hash
17930109462890095984

$$$$
18_
XXILIB    08252103513D 0   0.00000     0.00000

 31 33  0     1  0            999 V2000
   -3.5602    0.0114   -1.4766 Cl  0  0  0  0  0  1           0  0  0
    3.4570    5.2105    3.3018 O   0  0  0  0  0  2           0  0  0
    0.5144    0.7915   -4.9878 O   0  0  0  0  0  2           0  0  0
   -0.1999    1.4161   -2.8834 O   0  0  0  0  0  2           0  0  0
    5.5166    4.6334    2.5488 O   0  0  0  0  0  2           0  0  0
    0.0000   -0.0000    0.0000 N   0  0  0  0  0  3           0  0  0
   -2.0836    0.0005    0.7718 N   0  0  0  0  0  3           0  0  0
   -2.0993    0.0105   -0.5980 C   0  0  0  0  0  4           0  0  0
   -0.8119    0.0000    1.1177 C   0  0  0  0  0  4           0  0  0
   -0.8166    0.0194   -1.1139 C   0  0  0  0  0  4           0  0  0
    3.5774    5.3896    0.0306 C   0  0  0  0  0  4           0  0  0
    3.0365    4.0243    0.0219 C   0  0  0  0  0  4           0  0  0
    4.1353    6.0021    1.1746 C   0  0  0  0  0  4           0  0  0
    1.9918    1.3967    0.0000 C   0  0  0  0  0  4           0  0  0
    3.5214    6.1584   -1.1498 C   0  0  0  0  0  4           0  0  0
    1.9701    3.6691    0.8613 C   0  0  0  0  0  4           0  0  0
    3.5755    3.0446   -0.8250 C   0  0  0  0  0  4           0  0  0
    4.6067    7.3240    1.1327 C   0  0  0  0  0  4           0  0  0
    1.4552    2.3697    0.8522 C   0  0  0  0  0  4           0  0  0
    3.0610    1.7450   -0.8342 C   0  0  0  0  0  4           0  0  0
    3.9891    7.4745   -1.1893 C   0  0  0  0  0  4           0  0  0
    4.5278    8.0574   -0.0479 C   0  0  0  0  0  4           0  0  0
    4.3192    5.2551    2.4360 C   0  0  0  0  0  4           0  0  0
    0.2361    1.6422   -4.1531 C   0  0  0  0  0  4           0  0  0
   -0.3373    0.0390   -2.5151 C   0  0  0  0  0  4           0  0  0
    1.4497   -0.0000    0.0000 C   0  0  0  0  0  4           0  0  0
   -0.3193   -0.0056    2.5204 C   0  0  0  0  0  4           0  0  0
   -1.0721   -1.0028    3.3951 C   0  0  0  0  0  4           0  0  0
   -0.9474   -2.4389    2.8925 C   0  0  0  0  0  4           0  0  0
    0.3013    3.1175   -4.4098 C   0  0  0  0  0  4           0  0  0
   -1.7072   -3.4071    3.7839 C   0  0  0  0  0  4           0  0  0
  1  8  1  0     0  0
  2 23  2  0     0  0
  3 24  2  0     0  0
  4 24  1  0     0  0
  4 25  1  0     0  0
  5 23  1  0     0  0
  6  9  1  0     0  0
  6 10  1  0     0  0
  6 26  1  0     0  0
  7  8  1  0     0  0
  7  9  2  0     0  0
  8 10  2  0     0  0
  9 27  1  0     0  0
 10 25  1  0     0  0
 11 12  1  0     0  0
 11 13  1  0     0  0
 11 15  2  0     0  0
 12 16  2  0     0  0
 12 17  1  0     0  0
 13 18  2  0     0  0
 13 23  1  0     0  0
 14 19  2  0     0  0
 14 20  1  0     0  0
 14 26  1  0     0  0
 15 21  1  0     0  0
 16 19  1  0     0  0
 17 20  2  0     0  0
 18 22  1  0     0  0
 21 22  2  0     0  0
 24 30  1  0     0  0
 27 28  1  0     0  0
 28 29  1  0     0  0
 29 31  1  0     0  0
M  END
> <standard_type>
pIC50

> <# Confs.>
25

> <canonical_smiles>
CCCCC1=NC(Cl)=C(COC(C)=O)N1CC2=CC=C(C3=CC=CC=C3C(O)=O)C=C2

> <standard_relation>
=

> <Publication_ID>
nan

> <predicted_activity_value>
6.920818753952375

> <actual_activity_value>
5.47755576649368

> <Compound>
18

> <standard_units>
nM

> hash
17930109462890095984

$$$$
18_
XXILIB    08252103513D 0   0.00000     0.00000

 31 33  0     1  0            999 V2000
   -3.5602    0.0114   -1.4766 Cl  0  0  0  0  0  1           0  0  0
    5.4297   -4.6585    2.5398 O   0  0  0  0  0  2           0  0  0
    0.5099   -0.6441   -5.0094 O   0  0  0  0  0  2           0  0  0
   -0.2086   -1.3273   -2.9248 O   0  0  0  0  0  2           0  0  0
    6.4442   -4.1261    0.5829 O   0  0  0  0  0  2           0  0  0
    0.0000   -0.0000    0.0000 N   0  0  0  0  0  3           0  0  0
   -2.0836    0.0005    0.7718 N   0  0  0  0  0  3           0  0  0
   -2.0993    0.0105   -0.5980 C   0  0  0  0  0  4           0  0  0
   -0.8119    0.0000    1.1177 C   0  0  0  0  0  4           0  0  0
   -0.8166    0.0194   -1.1139 C   0  0  0  0  0  4           0  0  0
    3.5038   -5.4181   -0.0021 C   0  0  0  0  0  4           0  0  0
    2.9850   -4.0443   -0.0010 C   0  0  0  0  0  4           0  0  0
    4.7388   -5.7878    0.5753 C   0  0  0  0  0  4           0  0  0
    1.9918   -1.3967    0.0000 C   0  0  0  0  0  4           0  0  0
    2.7573   -6.4341   -0.6330 C   0  0  0  0  0  4           0  0  0
    2.7429   -3.3692    1.2047 C   0  0  0  0  0  4           0  0  0
    2.7185   -3.3772   -1.2058 C   0  0  0  0  0  4           0  0  0
    5.2007   -7.1123    0.5143 C   0  0  0  0  0  4           0  0  0
    2.2497   -2.0614    1.2052 C   0  0  0  0  0  4           0  0  0
    2.2251   -2.0695   -1.2056 C   0  0  0  0  0  4           0  0  0
    3.2193   -7.7514   -0.6946 C   0  0  0  0  0  4           0  0  0
    4.4416   -8.0888   -0.1245 C   0  0  0  0  0  4           0  0  0
    5.5554   -4.8180    1.3341 C   0  0  0  0  0  4           0  0  0
    0.2262   -1.5178   -4.2007 C   0  0  0  0  0  4           0  0  0
   -0.3373    0.0390   -2.5151 C   0  0  0  0  0  4           0  0  0
    1.4497    0.0000   -0.0000 C   0  0  0  0  0  4           0  0  0
   -0.3193   -0.0056    2.5204 C   0  0  0  0  0  4           0  0  0
   -1.0646    0.9923    3.4005 C   0  0  0  0  0  4           0  0  0
   -0.9293    2.4302    2.9057 C   0  0  0  0  0  4           0  0  0
    0.3445   -2.9856   -4.4804 C   0  0  0  0  0  4           0  0  0
   -1.6819    3.3992    3.8024 C   0  0  0  0  0  4           0  0  0
  1  8  1  0     0  0
  2 23  2  0     0  0
  3 24  2  0     0  0
  4 24  1  0     0  0
  4 25  1  0     0  0
  5 23  1  0     0  0
  6  9  1  0     0  0
  6 10  1  0     0  0
  6 26  1  0     0  0
  7  8  1  0     0  0
  7  9  2  0     0  0
  8 10  2  0     0  0
  9 27  1  0     0  0
 10 25  1  0     0  0
 11 12  1  0     0  0
 11 13  1  0     0  0
 11 15  2  0     0  0
 12 16  2  0     0  0
 12 17  1  0     0  0
 13 18  2  0     0  0
 13 23  1  0     0  0
 14 19  2  0     0  0
 14 20  1  0     0  0
 14 26  1  0     0  0
 15 21  1  0     0  0
 16 19  1  0     0  0
 17 20  2  0     0  0
 18 22  1  0     0  0
 21 22  2  0     0  0
 24 30  1  0     0  0
 27 28  1  0     0  0
 28 29  1  0     0  0
 29 31  1  0     0  0
M  END
> <standard_type>
pIC50

> <# Confs.>
25

> <canonical_smiles>
CCCCC1=NC(Cl)=C(COC(C)=O)N1CC2=CC=C(C3=CC=CC=C3C(O)=O)C=C2

> <standard_relation>
=

> <Publication_ID>
nan

> <predicted_activity_value>
6.920818753952375

> <actual_activity_value>
5.47755576649368

> <Compound>
18

> <standard_units>
nM

> hash
17930109462890095984

$$$$
18_
XXILIB    08252103513D 0   0.00000     0.00000

 31 33  0     1  0            999 V2000
   -3.5602    0.0114   -1.4766 Cl  0  0  0  0  0  1           0  0  0
    5.9550    3.8911    1.2970 O   0  0  0  0  0  2           0  0  0
    0.5099   -0.6441   -5.0094 O   0  0  0  0  0  2           0  0  0
   -0.2086   -1.3273   -2.9248 O   0  0  0  0  0  2           0  0  0
    5.2681    5.1311    3.0669 O   0  0  0  0  0  2           0  0  0
    0.0000   -0.0000    0.0000 N   0  0  0  0  0  3           0  0  0
   -2.0836    0.0005    0.7718 N   0  0  0  0  0  3           0  0  0
   -2.0993    0.0105   -0.5980 C   0  0  0  0  0  4           0  0  0
   -0.8119    0.0000    1.1177 C   0  0  0  0  0  4           0  0  0
   -0.8166    0.0194   -1.1139 C   0  0  0  0  0  4           0  0  0
    3.5774    5.3896    0.0306 C   0  0  0  0  0  4           0  0  0
    3.0365    4.0243    0.0219 C   0  0  0  0  0  4           0  0  0
    4.6291    5.8084    0.8754 C   0  0  0  0  0  4           0  0  0
    1.9918    1.3967    0.0000 C   0  0  0  0  0  4           0  0  0
    3.0118    6.3582   -0.8235 C   0  0  0  0  0  4           0  0  0
    1.9701    3.6691    0.8613 C   0  0  0  0  0  4           0  0  0
    3.5755    3.0446   -0.8250 C   0  0  0  0  0  4           0  0  0
    5.0832    7.1369    0.8645 C   0  0  0  0  0  4           0  0  0
    1.4552    2.3697    0.8522 C   0  0  0  0  0  4           0  0  0
    3.0610    1.7450   -0.8342 C   0  0  0  0  0  4           0  0  0
    3.4635    7.6804   -0.8317 C   0  0  0  0  0  4           0  0  0
    4.4957    8.0697    0.0143 C   0  0  0  0  0  4           0  0  0
    5.3464    4.8526    1.7443 C   0  0  0  0  0  4           0  0  0
    0.2262   -1.5178   -4.2007 C   0  0  0  0  0  4           0  0  0
   -0.3373    0.0390   -2.5151 C   0  0  0  0  0  4           0  0  0
    1.4497   -0.0000    0.0000 C   0  0  0  0  0  4           0  0  0
   -0.3193   -0.0056    2.5204 C   0  0  0  0  0  4           0  0  0
   -1.0721   -1.0028    3.3951 C   0  0  0  0  0  4           0  0  0
   -0.5726   -1.0153    4.8377 C   0  0  0  0  0  4           0  0  0
    0.3445   -2.9856   -4.4804 C   0  0  0  0  0  4           0  0  0
   -1.3414   -2.0175    5.6828 C   0  0  0  0  0  4           0  0  0
  1  8  1  0     0  0
  2 23  2  0     0  0
  3 24  2  0     0  0
  4 24  1  0     0  0
  4 25  1  0     0  0
  5 23  1  0     0  0
  6  9  1  0     0  0
  6 10  1  0     0  0
  6 26  1  0     0  0
  7  8  1  0     0  0
  7  9  2  0     0  0
  8 10  2  0     0  0
  9 27  1  0     0  0
 10 25  1  0     0  0
 11 12  1  0     0  0
 11 13  1  0     0  0
 11 15  2  0     0  0
 12 16  2  0     0  0
 12 17  1  0     0  0
 13 18  2  0     0  0
 13 23  1  0     0  0
 14 19  2  0     0  0
 14 20  1  0     0  0
 14 26  1  0     0  0
 15 21  1  0     0  0
 16 19  1  0     0  0
 17 20  2  0     0  0
 18 22  1  0     0  0
 21 22  2  0     0  0
 24 30  1  0     0  0
 27 28  1  0     0  0
 28 29  1  0     0  0
 29 31  1  0     0  0
M  END
> <standard_type>
pIC50

> <# Confs.>
25

> <canonical_smiles>
CCCCC1=NC(Cl)=C(COC(C)=O)N1CC2=CC=C(C3=CC=CC=C3C(O)=O)C=C2

> <standard_relation>
=

> <Publication_ID>
nan

> <predicted_activity_value>
6.920818753952375

> <actual_activity_value>
5.47755576649368

> <Compound>
18

> <standard_units>
nM

> hash
17930109462890095984

$$$$
18_
XXILIB    08252103513D 0   0.00000     0.00000

 31 33  0     1  0            999 V2000
   -3.5602    0.0114   -1.4766 Cl  0  0  0  0  0  1           0  0  0
    6.5480   -4.0109   -0.0139 O   0  0  0  0  0  2           0  0  0
    0.5099   -0.6441   -5.0094 O   0  0  0  0  0  2           0  0  0
   -0.2086   -1.3273   -2.9248 O   0  0  0  0  0  2           0  0  0
    5.9210   -4.4765    2.1150 O   0  0  0  0  0  2           0  0  0
    0.0000   -0.0000    0.0000 N   0  0  0  0  0  3           0  0  0
   -2.0836    0.0005    0.7718 N   0  0  0  0  0  3           0  0  0
   -2.0993    0.0105   -0.5980 C   0  0  0  0  0  4           0  0  0
   -0.8119    0.0000    1.1177 C   0  0  0  0  0  4           0  0  0
   -0.8166    0.0194   -1.1139 C   0  0  0  0  0  4           0  0  0
    3.5746   -5.3906    0.0336 C   0  0  0  0  0  4           0  0  0
    3.0352   -4.0248    0.0233 C   0  0  0  0  0  4           0  0  0
    4.9207   -5.6973    0.3321 C   0  0  0  0  0  4           0  0  0
    1.9918   -1.3967    0.0000 C   0  0  0  0  0  4           0  0  0
    2.7261   -6.4670   -0.2968 C   0  0  0  0  0  4           0  0  0
    3.5583   -3.0527   -0.8424 C   0  0  0  0  0  4           0  0  0
    1.9858   -3.6616    0.8803 C   0  0  0  0  0  4           0  0  0
    5.3892   -7.0203    0.2933 C   0  0  0  0  0  4           0  0  0
    3.0442   -1.7530   -0.8522 C   0  0  0  0  0  4           0  0  0
    1.4716   -2.3619    0.8708 C   0  0  0  0  0  4           0  0  0
    3.1944   -7.7829   -0.3369 C   0  0  0  0  0  4           0  0  0
    4.5257   -8.0583   -0.0456 C   0  0  0  0  0  4           0  0  0
    5.8688   -4.6537    0.7738 C   0  0  0  0  0  4           0  0  0
    0.2262   -1.5178   -4.2007 C   0  0  0  0  0  4           0  0  0
   -0.3373    0.0390   -2.5151 C   0  0  0  0  0  4           0  0  0
    1.4497    0.0000   -0.0000 C   0  0  0  0  0  4           0  0  0
   -0.3193   -0.0056    2.5204 C   0  0  0  0  0  4           0  0  0
   -1.0646    0.9923    3.4005 C   0  0  0  0  0  4           0  0  0
   -0.5651    0.9933    4.8432 C   0  0  0  0  0  4           0  0  0
    0.3445   -2.9856   -4.4804 C   0  0  0  0  0  4           0  0  0
   -1.3264    1.9966    5.6937 C   0  0  0  0  0  4           0  0  0
  1  8  1  0     0  0
  2 23  2  0     0  0
  3 24  2  0     0  0
  4 24  1  0     0  0
  4 25  1  0     0  0
  5 23  1  0     0  0
  6  9  1  0     0  0
  6 10  1  0     0  0
  6 26  1  0     0  0
  7  8  1  0     0  0
  7  9  2  0     0  0
  8 10  2  0     0  0
  9 27  1  0     0  0
 10 25  1  0     0  0
 11 12  1  0     0  0
 11 13  1  0     0  0
 11 15  2  0     0  0
 12 16  2  0     0  0
 12 17  1  0     0  0
 13 18  2  0     0  0
 13 23  1  0     0  0
 14 19  2  0     0  0
 14 20  1  0     0  0
 14 26  1  0     0  0
 15 21  1  0     0  0
 16 19  1  0     0  0
 17 20  2  0     0  0
 18 22  1  0     0  0
 21 22  2  0     0  0
 24 30  1  0     0  0
 27 28  1  0     0  0
 28 29  1  0     0  0
 29 31  1  0     0  0
M  END
> <standard_type>
pIC50

> <# Confs.>
25

> <canonical_smiles>
CCCCC1=NC(Cl)=C(COC(C)=O)N1CC2=CC=C(C3=CC=CC=C3C(O)=O)C=C2

> <standard_relation>
=

> <Publication_ID>
nan

> <predicted_activity_value>
6.920818753952375

> <actual_activity_value>
5.47755576649368

> <Compound>
18

> <standard_units>
nM

> hash
17930109462890095984

$$$$
18_
XXILIB    08252103513D 0   0.00000     0.00000

 31 33  0     1  0            999 V2000
   -3.5602    0.0114   -1.4766 Cl  0  0  0  0  0  1           0  0  0
    3.8813   -5.2594   -3.2277 O   0  0  0  0  0  2           0  0  0
    0.5144    0.7915   -4.9878 O   0  0  0  0  0  2           0  0  0
   -0.1999    1.4161   -2.8834 O   0  0  0  0  0  2           0  0  0
    1.7942   -5.9307   -2.6490 O   0  0  0  0  0  2           0  0  0
    0.0000   -0.0000    0.0000 N   0  0  0  0  0  3           0  0  0
   -2.0836    0.0005    0.7718 N   0  0  0  0  0  3           0  0  0
   -2.0993    0.0105   -0.5980 C   0  0  0  0  0  4           0  0  0
   -0.8119    0.0000    1.1177 C   0  0  0  0  0  4           0  0  0
   -0.8166    0.0194   -1.1139 C   0  0  0  0  0  4           0  0  0
    3.5746   -5.3906    0.0336 C   0  0  0  0  0  4           0  0  0
    3.0352   -4.0248    0.0233 C   0  0  0  0  0  4           0  0  0
    3.5707   -6.2411   -1.0943 C   0  0  0  0  0  4           0  0  0
    1.9918   -1.3967    0.0000 C   0  0  0  0  0  4           0  0  0
    4.1048   -5.9112    1.2317 C   0  0  0  0  0  4           0  0  0
    3.5583   -3.0527   -0.8424 C   0  0  0  0  0  4           0  0  0
    1.9858   -3.6616    0.8803 C   0  0  0  0  0  4           0  0  0
    4.0698   -7.5511   -1.0168 C   0  0  0  0  0  4           0  0  0
    3.0442   -1.7530   -0.8522 C   0  0  0  0  0  4           0  0  0
    1.4716   -2.3619    0.8708 C   0  0  0  0  0  4           0  0  0
    4.5992   -7.2159    1.3077 C   0  0  0  0  0  4           0  0  0
    4.5781   -8.0358    0.1851 C   0  0  0  0  0  4           0  0  0
    3.1176   -5.7641   -2.4172 C   0  0  0  0  0  4           0  0  0
    0.2361    1.6422   -4.1531 C   0  0  0  0  0  4           0  0  0
   -0.3373    0.0390   -2.5151 C   0  0  0  0  0  4           0  0  0
    1.4497    0.0000   -0.0000 C   0  0  0  0  0  4           0  0  0
   -0.3193   -0.0056    2.5204 C   0  0  0  0  0  4           0  0  0
   -1.0721   -1.0028    3.3951 C   0  0  0  0  0  4           0  0  0
   -0.5726   -1.0153    4.8377 C   0  0  0  0  0  4           0  0  0
    0.3013    3.1175   -4.4098 C   0  0  0  0  0  4           0  0  0
   -1.3414   -2.0175    5.6828 C   0  0  0  0  0  4           0  0  0
  1  8  1  0     0  0
  2 23  2  0     0  0
  3 24  2  0     0  0
  4 24  1  0     0  0
  4 25  1  0     0  0
  5 23  1  0     0  0
  6  9  1  0     0  0
  6 10  1  0     0  0
  6 26  1  0     0  0
  7  8  1  0     0  0
  7  9  2  0     0  0
  8 10  2  0     0  0
  9 27  1  0     0  0
 10 25  1  0     0  0
 11 12  1  0     0  0
 11 13  1  0     0  0
 11 15  2  0     0  0
 12 16  2  0     0  0
 12 17  1  0     0  0
 13 18  2  0     0  0
 13 23  1  0     0  0
 14 19  2  0     0  0
 14 20  1  0     0  0
 14 26  1  0     0  0
 15 21  1  0     0  0
 16 19  1  0     0  0
 17 20  2  0     0  0
 18 22  1  0     0  0
 21 22  2  0     0  0
 24 30  1  0     0  0
 27 28  1  0     0  0
 28 29  1  0     0  0
 29 31  1  0     0  0
M  END
> <standard_type>
pIC50

> <# Confs.>
25

> <canonical_smiles>
CCCCC1=NC(Cl)=C(COC(C)=O)N1CC2=CC=C(C3=CC=CC=C3C(O)=O)C=C2

> <standard_relation>
=

> <Publication_ID>
nan

> <predicted_activity_value>
6.920818753952375

> <actual_activity_value>
5.47755576649368

> <Compound>
18

> <standard_units>
nM

> hash
17930109462890095984

$$$$
18_
XXILIB    08252103513D 0   0.00000     0.00000

 31 33  0     1  0            999 V2000
   -3.5602    0.0114   -1.4766 Cl  0  0  0  0  0  1           0  0  0
    3.4570   -5.2105   -3.3018 O   0  0  0  0  0  2           0  0  0
    0.5144    0.7915   -4.9878 O   0  0  0  0  0  2           0  0  0
   -0.1999    1.4161   -2.8834 O   0  0  0  0  0  2           0  0  0
    5.5166   -4.6334   -2.5488 O   0  0  0  0  0  2           0  0  0
    0.0000   -0.0000    0.0000 N   0  0  0  0  0  3           0  0  0
   -2.0836    0.0005    0.7718 N   0  0  0  0  0  3           0  0  0
   -2.0993    0.0105   -0.5980 C   0  0  0  0  0  4           0  0  0
   -0.8119    0.0000    1.1177 C   0  0  0  0  0  4           0  0  0
   -0.8166    0.0194   -1.1139 C   0  0  0  0  0  4           0  0  0
    3.5774   -5.3896   -0.0306 C   0  0  0  0  0  4           0  0  0
    3.0365   -4.0243   -0.0219 C   0  0  0  0  0  4           0  0  0
    4.1353   -6.0021   -1.1746 C   0  0  0  0  0  4           0  0  0
    1.9918   -1.3967   -0.0000 C   0  0  0  0  0  4           0  0  0
    3.5214   -6.1584    1.1498 C   0  0  0  0  0  4           0  0  0
    1.9701   -3.6691   -0.8613 C   0  0  0  0  0  4           0  0  0
    3.5755   -3.0446    0.8250 C   0  0  0  0  0  4           0  0  0
    4.6067   -7.3240   -1.1327 C   0  0  0  0  0  4           0  0  0
    1.4552   -2.3697   -0.8522 C   0  0  0  0  0  4           0  0  0
    3.0610   -1.7450    0.8342 C   0  0  0  0  0  4           0  0  0
    3.9891   -7.4745    1.1893 C   0  0  0  0  0  4           0  0  0
    4.5278   -8.0574    0.0479 C   0  0  0  0  0  4           0  0  0
    4.3192   -5.2551   -2.4360 C   0  0  0  0  0  4           0  0  0
    0.2361    1.6422   -4.1531 C   0  0  0  0  0  4           0  0  0
   -0.3373    0.0390   -2.5151 C   0  0  0  0  0  4           0  0  0
    1.4497    0.0000   -0.0000 C   0  0  0  0  0  4           0  0  0
   -0.3193   -0.0056    2.5204 C   0  0  0  0  0  4           0  0  0
   -0.1324   -1.4186    3.0634 C   0  0  0  0  0  4           0  0  0
    0.3734   -1.4340    4.5038 C   0  0  0  0  0  4           0  0  0
    0.3013    3.1175   -4.4098 C   0  0  0  0  0  4           0  0  0
    0.5492   -2.8541    5.0154 C   0  0  0  0  0  4           0  0  0
  1  8  1  0     0  0
  2 23  2  0     0  0
  3 24  2  0     0  0
  4 24  1  0     0  0
  4 25  1  0     0  0
  5 23  1  0     0  0
  6  9  1  0     0  0
  6 10  1  0     0  0
  6 26  1  0     0  0
  7  8  1  0     0  0
  7  9  2  0     0  0
  8 10  2  0     0  0
  9 27  1  0     0  0
 10 25  1  0     0  0
 11 12  1  0     0  0
 11 13  1  0     0  0
 11 15  2  0     0  0
 12 16  2  0     0  0
 12 17  1  0     0  0
 13 18  2  0     0  0
 13 23  1  0     0  0
 14 19  2  0     0  0
 14 20  1  0     0  0
 14 26  1  0     0  0
 15 21  1  0     0  0
 16 19  1  0     0  0
 17 20  2  0     0  0
 18 22  1  0     0  0
 21 22  2  0     0  0
 24 30  1  0     0  0
 27 28  1  0     0  0
 28 29  1  0     0  0
 29 31  1  0     0  0
M  END
> <standard_type>
pIC50

> <# Confs.>
25

> <canonical_smiles>
CCCCC1=NC(Cl)=C(COC(C)=O)N1CC2=CC=C(C3=CC=CC=C3C(O)=O)C=C2

> <standard_relation>
=

> <Publication_ID>
nan

> <predicted_activity_value>
6.920818753952375

> <actual_activity_value>
5.47755576649368

> <Compound>
18

> <standard_units>
nM

> hash
17930109462890095984

$$$$
14_
XXILIB    08252103513D 0   0.00000     0.00000

 30 32  0     1  0            999 V2000
    5.0080   -1.4815   -0.1021 Cl  0  0  0  0  0  1           0  0  0
   -1.9861    0.1214    5.3177 O   0  0  0  0  0  2           0  0  0
   -5.3531   -1.6954    5.9458 O   0  0  0  0  0  2           0  0  0
   -5.8372    0.4543    6.5291 O   0  0  0  0  0  2           0  0  0
    1.6760   -2.9488    1.3002 O   0  0  0  0  0  2           0  0  0
    1.4519   -0.0000    0.0000 N   0  0  0  0  0  3           0  0  0
    3.5357    0.7699   -0.0300 N   0  0  0  0  0  3           0  0  0
    3.5498   -0.5999   -0.0532 C   0  0  0  0  0  4           0  0  0
   -1.5169   -0.0027    4.0399 C   0  0  0  0  0  4           0  0  0
    2.2647    1.1169   -0.0000 C   0  0  0  0  0  4           0  0  0
    2.2666   -1.1149   -0.0368 C   0  0  0  0  0  4           0  0  0
   -4.1177   -0.6124    7.6737 C   0  0  0  0  0  4           0  0  0
   -2.7550   -0.7888    7.3728 C   0  0  0  0  0  4           0  0  0
   -0.5415    0.0000    1.3968 C   0  0  0  0  0  4           0  0  0
   -1.2868   -1.2088    3.3735 C   0  0  0  0  0  4           0  0  0
   -1.2590    1.2026    3.3800 C   0  0  0  0  0  4           0  0  0
   -4.5279   -0.3107    8.9806 C   0  0  0  0  0  4           0  0  0
   -1.8213   -0.6484    8.4132 C   0  0  0  0  0  4           0  0  0
   -0.7996   -1.2048    2.0624 C   0  0  0  0  0  4           0  0  0
   -0.7736    1.2049    2.0706 C   0  0  0  0  0  4           0  0  0
   -3.5837   -0.1833    9.9975 C   0  0  0  0  0  4           0  0  0
   -2.2317   -0.3523    9.7144 C   0  0  0  0  0  4           0  0  0
   -5.1494   -0.7048    6.6269 C   0  0  0  0  0  4           0  0  0
   -2.2515   -1.1047    5.9953 C   0  0  0  0  0  4           0  0  0
    1.7864   -2.5134   -0.0479 C   0  0  0  0  0  4           0  0  0
    0.0000    0.0000    0.0000 C   0  0  0  0  0  4           0  0  0
    1.7718    2.5209    0.0303 C   0  0  0  0  0  4           0  0  0
    2.5015    3.4126   -0.9695 C   0  0  0  0  0  4           0  0  0
    2.3709    2.9726   -2.4284 C   0  0  0  0  0  4           0  0  0
    3.1117    3.8866   -3.3932 C   0  0  0  0  0  4           0  0  0
  1  8  1  0     0  0
  2  9  1  0     0  0
  2 24  1  0     0  0
  3 23  2  0     0  0
  4 23  1  0     0  0
  5 25  1  0     0  0
  6 10  1  0     0  0
  6 11  1  0     0  0
  6 26  1  0     0  0
  7  8  1  0     0  0
  7 10  2  0     0  0
  8 11  2  0     0  0
  9 15  2  0     0  0
  9 16  1  0     0  0
 10 27  1  0     0  0
 11 25  1  0     0  0
 12 13  1  0     0  0
 12 17  2  0     0  0
 12 23  1  0     0  0
 13 18  2  0     0  0
 13 24  1  0     0  0
 14 19  2  0     0  0
 14 20  1  0     0  0
 14 26  1  0     0  0
 15 19  1  0     0  0
 16 20  2  0     0  0
 17 21  1  0     0  0
 18 22  1  0     0  0
 21 22  2  0     0  0
 27 28  1  0     0  0
 28 29  1  0     0  0
 29 30  1  0     0  0
M  END
> <standard_type>
pIC50

> <# Confs.>
25

> <canonical_smiles>
ClC(N=C1CCCC)=C(CO)N1CC2=CC=C(OCC3=CC=CC=C3C(O)=O)C=C2

> <standard_relation>
=

> <Publication_ID>
nan

> <predicted_activity_value>
5.920818753952375

> <actual_activity_value>
6.036212172654444

> <Compound>
14

> <standard_units>
nM

> hash
17989980845622856130

$$$$
14_
XXILIB    08252103513D 0   0.00000     0.00000

 30 32  0     1  0            999 V2000
    5.0080   -1.4815   -0.1021 Cl  0  0  0  0  0  1           0  0  0
   -1.9861    0.1214    5.3177 O   0  0  0  0  0  2           0  0  0
   -1.4619   -3.5686    7.8301 O   0  0  0  0  0  2           0  0  0
   -0.1977   -2.2121    9.1557 O   0  0  0  0  0  2           0  0  0
    1.6760   -2.9488    1.3002 O   0  0  0  0  0  2           0  0  0
    1.4519   -0.0000    0.0000 N   0  0  0  0  0  3           0  0  0
    3.5357    0.7699   -0.0300 N   0  0  0  0  0  3           0  0  0
    3.5498   -0.5999   -0.0532 C   0  0  0  0  0  4           0  0  0
   -1.5169   -0.0027    4.0399 C   0  0  0  0  0  4           0  0  0
    2.2647    1.1169   -0.0000 C   0  0  0  0  0  4           0  0  0
    2.2666   -1.1149   -0.0368 C   0  0  0  0  0  4           0  0  0
   -2.3027   -1.4499    8.5292 C   0  0  0  0  0  4           0  0  0
   -2.7550   -0.7888    7.3728 C   0  0  0  0  0  4           0  0  0
   -0.5415    0.0000    1.3968 C   0  0  0  0  0  4           0  0  0
   -1.2868   -1.2088    3.3735 C   0  0  0  0  0  4           0  0  0
   -1.2590    1.2026    3.3800 C   0  0  0  0  0  4           0  0  0
   -2.8167   -1.1158    9.7907 C   0  0  0  0  0  4           0  0  0
   -3.7361    0.2063    7.5173 C   0  0  0  0  0  4           0  0  0
   -0.7996   -1.2048    2.0624 C   0  0  0  0  0  4           0  0  0
   -0.7736    1.2049    2.0706 C   0  0  0  0  0  4           0  0  0
   -3.7844   -0.1202    9.9096 C   0  0  0  0  0  4           0  0  0
   -4.2435    0.5406    8.7743 C   0  0  0  0  0  4           0  0  0
   -1.3056   -2.5308    8.4505 C   0  0  0  0  0  4           0  0  0
   -2.2515   -1.1047    5.9953 C   0  0  0  0  0  4           0  0  0
    1.7864   -2.5134   -0.0479 C   0  0  0  0  0  4           0  0  0
    0.0000    0.0000    0.0000 C   0  0  0  0  0  4           0  0  0
    1.7718    2.5209    0.0303 C   0  0  0  0  0  4           0  0  0
    2.5015    3.4126   -0.9695 C   0  0  0  0  0  4           0  0  0
    2.3709    2.9726   -2.4284 C   0  0  0  0  0  4           0  0  0
    3.1117    3.8866   -3.3932 C   0  0  0  0  0  4           0  0  0
  1  8  1  0     0  0
  2  9  1  0     0  0
  2 24  1  0     0  0
  3 23  2  0     0  0
  4 23  1  0     0  0
  5 25  1  0     0  0
  6 10  1  0     0  0
  6 11  1  0     0  0
  6 26  1  0     0  0
  7  8  1  0     0  0
  7 10  2  0     0  0
  8 11  2  0     0  0
  9 15  2  0     0  0
  9 16  1  0     0  0
 10 27  1  0     0  0
 11 25  1  0     0  0
 12 13  1  0     0  0
 12 17  2  0     0  0
 12 23  1  0     0  0
 13 18  2  0     0  0
 13 24  1  0     0  0
 14 19  2  0     0  0
 14 20  1  0     0  0
 14 26  1  0     0  0
 15 19  1  0     0  0
 16 20  2  0     0  0
 17 21  1  0     0  0
 18 22  1  0     0  0
 21 22  2  0     0  0
 27 28  1  0     0  0
 28 29  1  0     0  0
 29 30  1  0     0  0
M  END
> <standard_type>
pIC50

> <# Confs.>
25

> <canonical_smiles>
ClC(N=C1CCCC)=C(CO)N1CC2=CC=C(OCC3=CC=CC=C3C(O)=O)C=C2

> <standard_relation>
=

> <Publication_ID>
nan

> <predicted_activity_value>
5.920818753952375

> <actual_activity_value>
6.036212172654444

> <Compound>
14

> <standard_units>
nM

> hash
17989980845622856130

$$$$
14_
XXILIB    08252103513D 0   0.00000     0.00000

 30 32  0     1  0            999 V2000
    5.0080   -1.4815   -0.1021 Cl  0  0  0  0  0  1           0  0  0
   -1.9861    0.1214    5.3177 O   0  0  0  0  0  2           0  0  0
   -4.1542   -3.4941    6.7965 O   0  0  0  0  0  2           0  0  0
   -5.9184   -2.0790    7.0804 O   0  0  0  0  0  2           0  0  0
    1.6760   -2.9488    1.3002 O   0  0  0  0  0  2           0  0  0
    1.4519   -0.0000    0.0000 N   0  0  0  0  0  3           0  0  0
    3.5357    0.7699   -0.0300 N   0  0  0  0  0  3           0  0  0
    3.5498   -0.5999   -0.0532 C   0  0  0  0  0  4           0  0  0
   -1.5169   -0.0027    4.0399 C   0  0  0  0  0  4           0  0  0
    2.2647    1.1169   -0.0000 C   0  0  0  0  0  4           0  0  0
    2.2666   -1.1149   -0.0368 C   0  0  0  0  0  4           0  0  0
   -3.8641   -1.4299    7.9538 C   0  0  0  0  0  4           0  0  0
   -2.7550   -0.7888    7.3728 C   0  0  0  0  0  4           0  0  0
   -0.5415    0.0000    1.3968 C   0  0  0  0  0  4           0  0  0
   -1.2868   -1.2088    3.3735 C   0  0  0  0  0  4           0  0  0
   -1.2590    1.2026    3.3800 C   0  0  0  0  0  4           0  0  0
   -4.2932   -1.0863    9.2443 C   0  0  0  0  0  4           0  0  0
   -2.0970    0.2049    8.1167 C   0  0  0  0  0  4           0  0  0
   -0.7996   -1.2048    2.0624 C   0  0  0  0  0  4           0  0  0
   -0.7736    1.2049    2.0706 C   0  0  0  0  0  4           0  0  0
   -3.6200   -0.1022    9.9656 C   0  0  0  0  0  4           0  0  0
   -2.5229    0.5426    9.4028 C   0  0  0  0  0  4           0  0  0
   -4.6271   -2.4526    7.2186 C   0  0  0  0  0  4           0  0  0
   -2.2515   -1.1047    5.9953 C   0  0  0  0  0  4           0  0  0
    1.7864   -2.5134   -0.0479 C   0  0  0  0  0  4           0  0  0
    0.0000    0.0000    0.0000 C   0  0  0  0  0  4           0  0  0
    1.7718    2.5209    0.0303 C   0  0  0  0  0  4           0  0  0
    2.5015    3.4126   -0.9695 C   0  0  0  0  0  4           0  0  0
    2.3709    2.9726   -2.4284 C   0  0  0  0  0  4           0  0  0
    3.1117    3.8866   -3.3932 C   0  0  0  0  0  4           0  0  0
  1  8  1  0     0  0
  2  9  1  0     0  0
  2 24  1  0     0  0
  3 23  2  0     0  0
  4 23  1  0     0  0
  5 25  1  0     0  0
  6 10  1  0     0  0
  6 11  1  0     0  0
  6 26  1  0     0  0
  7  8  1  0     0  0
  7 10  2  0     0  0
  8 11  2  0     0  0
  9 15  2  0     0  0
  9 16  1  0     0  0
 10 27  1  0     0  0
 11 25  1  0     0  0
 12 13  1  0     0  0
 12 17  2  0     0  0
 12 23  1  0     0  0
 13 18  2  0     0  0
 13 24  1  0     0  0
 14 19  2  0     0  0
 14 20  1  0     0  0
 14 26  1  0     0  0
 15 19  1  0     0  0
 16 20  2  0     0  0
 17 21  1  0     0  0
 18 22  1  0     0  0
 21 22  2  0     0  0
 27 28  1  0     0  0
 28 29  1  0     0  0
 29 30  1  0     0  0
M  END
> <standard_type>
pIC50

> <# Confs.>
25

> <canonical_smiles>
ClC(N=C1CCCC)=C(CO)N1CC2=CC=C(OCC3=CC=CC=C3C(O)=O)C=C2

> <standard_relation>
=

> <Publication_ID>
nan

> <predicted_activity_value>
5.920818753952375

> <actual_activity_value>
6.036212172654444

> <Compound>
14

> <standard_units>
nM

> hash
17989980845622856130

$$$$
14_
XXILIB    08252103513D 0   0.00000     0.00000

 30 32  0     1  0            999 V2000
    5.0080   -1.4815   -0.1021 Cl  0  0  0  0  0  1           0  0  0
   -1.9861    0.1214    5.3177 O   0  0  0  0  0  2           0  0  0
   -5.3531   -1.6954    5.9458 O   0  0  0  0  0  2           0  0  0
   -5.8372    0.4543    6.5291 O   0  0  0  0  0  2           0  0  0
    1.6760   -2.9488    1.3002 O   0  0  0  0  0  2           0  0  0
    1.4519   -0.0000    0.0000 N   0  0  0  0  0  3           0  0  0
    3.5357    0.7699   -0.0300 N   0  0  0  0  0  3           0  0  0
    3.5498   -0.5999   -0.0532 C   0  0  0  0  0  4           0  0  0
   -1.5169   -0.0027    4.0399 C   0  0  0  0  0  4           0  0  0
    2.2647    1.1169   -0.0000 C   0  0  0  0  0  4           0  0  0
    2.2666   -1.1149   -0.0368 C   0  0  0  0  0  4           0  0  0
   -4.1177   -0.6124    7.6737 C   0  0  0  0  0  4           0  0  0
   -2.7550   -0.7888    7.3728 C   0  0  0  0  0  4           0  0  0
   -0.5415    0.0000    1.3968 C   0  0  0  0  0  4           0  0  0
   -1.2868   -1.2088    3.3735 C   0  0  0  0  0  4           0  0  0
   -1.2590    1.2026    3.3800 C   0  0  0  0  0  4           0  0  0
   -4.5279   -0.3107    8.9806 C   0  0  0  0  0  4           0  0  0
   -1.8213   -0.6484    8.4132 C   0  0  0  0  0  4           0  0  0
   -0.7996   -1.2048    2.0624 C   0  0  0  0  0  4           0  0  0
   -0.7736    1.2049    2.0706 C   0  0  0  0  0  4           0  0  0
   -3.5837   -0.1833    9.9975 C   0  0  0  0  0  4           0  0  0
   -2.2317   -0.3523    9.7144 C   0  0  0  0  0  4           0  0  0
   -5.1494   -0.7048    6.6269 C   0  0  0  0  0  4           0  0  0
   -2.2515   -1.1047    5.9953 C   0  0  0  0  0  4           0  0  0
    1.7864   -2.5134   -0.0479 C   0  0  0  0  0  4           0  0  0
    0.0000    0.0000    0.0000 C   0  0  0  0  0  4           0  0  0
    1.7718    2.5209    0.0303 C   0  0  0  0  0  4           0  0  0
    2.5015    3.4126   -0.9695 C   0  0  0  0  0  4           0  0  0
    2.0351    4.8691   -0.9821 C   0  0  0  0  0  4           0  0  0
    2.7862    5.7247   -1.9913 C   0  0  0  0  0  4           0  0  0
  1  8  1  0     0  0
  2  9  1  0     0  0
  2 24  1  0     0  0
  3 23  2  0     0  0
  4 23  1  0     0  0
  5 25  1  0     0  0
  6 10  1  0     0  0
  6 11  1  0     0  0
  6 26  1  0     0  0
  7  8  1  0     0  0
  7 10  2  0     0  0
  8 11  2  0     0  0
  9 15  2  0     0  0
  9 16  1  0     0  0
 10 27  1  0     0  0
 11 25  1  0     0  0
 12 13  1  0     0  0
 12 17  2  0     0  0
 12 23  1  0     0  0
 13 18  2  0     0  0
 13 24  1  0     0  0
 14 19  2  0     0  0
 14 20  1  0     0  0
 14 26  1  0     0  0
 15 19  1  0     0  0
 16 20  2  0     0  0
 17 21  1  0     0  0
 18 22  1  0     0  0
 21 22  2  0     0  0
 27 28  1  0     0  0
 28 29  1  0     0  0
 29 30  1  0     0  0
M  END
> <standard_type>
pIC50

> <# Confs.>
25

> <canonical_smiles>
ClC(N=C1CCCC)=C(CO)N1CC2=CC=C(OCC3=CC=CC=C3C(O)=O)C=C2

> <standard_relation>
=

> <Publication_ID>
nan

> <predicted_activity_value>
5.920818753952375

> <actual_activity_value>
6.036212172654444

> <Compound>
14

> <standard_units>
nM

> hash
17989980845622856130

$$$$
14_
XXILIB    08252103513D 0   0.00000     0.00000

 30 32  0     1  0            999 V2000
    5.0080   -1.4815   -0.1021 Cl  0  0  0  0  0  1           0  0  0
   -2.1174   -0.1214    5.2667 O   0  0  0  0  0  2           0  0  0
   -4.1981    3.5686    6.7693 O   0  0  0  0  0  2           0  0  0
   -6.0255    2.2121    6.8963 O   0  0  0  0  0  2           0  0  0
    1.6760   -2.9488    1.3002 O   0  0  0  0  0  2           0  0  0
    1.4519   -0.0000    0.0000 N   0  0  0  0  0  3           0  0  0
    3.5357    0.7699   -0.0300 N   0  0  0  0  0  3           0  0  0
    3.5498   -0.5999   -0.0532 C   0  0  0  0  0  4           0  0  0
   -1.6027    0.0027    4.0066 C   0  0  0  0  0  4           0  0  0
    2.2647    1.1169   -0.0000 C   0  0  0  0  0  4           0  0  0
    2.2666   -1.1149   -0.0368 C   0  0  0  0  0  4           0  0  0
   -4.0483    1.4499    7.8524 C   0  0  0  0  0  4           0  0  0
   -2.9347    0.7888    7.3031 C   0  0  0  0  0  4           0  0  0
   -0.5415    0.0000    1.3968 C   0  0  0  0  0  4           0  0  0
   -1.3234    1.2088    3.3593 C   0  0  0  0  0  4           0  0  0
   -1.3484   -1.2026    3.3454 C   0  0  0  0  0  4           0  0  0
   -4.5190    1.1158    9.1308 C   0  0  0  0  0  4           0  0  0
   -2.3074   -0.2063    8.0712 C   0  0  0  0  0  4           0  0  0
   -0.7996    1.2048    2.0624 C   0  0  0  0  0  4           0  0  0
   -0.8243   -1.2049    2.0510 C   0  0  0  0  0  4           0  0  0
   -3.8843    0.1202    9.8709 C   0  0  0  0  0  4           0  0  0
   -2.7799   -0.5406    9.3418 C   0  0  0  0  0  4           0  0  0
   -4.7318    2.5308    7.1222 C   0  0  0  0  0  4           0  0  0
   -2.3781    1.1047    5.9462 C   0  0  0  0  0  4           0  0  0
    1.7864   -2.5134   -0.0479 C   0  0  0  0  0  4           0  0  0
    0.0000   -0.0000    0.0000 C   0  0  0  0  0  4           0  0  0
    1.7718    2.5209    0.0303 C   0  0  0  0  0  4           0  0  0
    2.5015    3.4126   -0.9695 C   0  0  0  0  0  4           0  0  0
    2.3709    2.9726   -2.4284 C   0  0  0  0  0  4           0  0  0
    3.1117    3.8866   -3.3932 C   0  0  0  0  0  4           0  0  0
  1  8  1  0     0  0
  2  9  1  0     0  0
  2 24  1  0     0  0
  3 23  2  0     0  0
  4 23  1  0     0  0
  5 25  1  0     0  0
  6 10  1  0     0  0
  6 11  1  0     0  0
  6 26  1  0     0  0
  7  8  1  0     0  0
  7 10  2  0     0  0
  8 11  2  0     0  0
  9 15  2  0     0  0
  9 16  1  0     0  0
 10 27  1  0     0  0
 11 25  1  0     0  0
 12 13  1  0     0  0
 12 17  2  0     0  0
 12 23  1  0     0  0
 13 18  2  0     0  0
 13 24  1  0     0  0
 14 19  2  0     0  0
 14 20  1  0     0  0
 14 26  1  0     0  0
 15 19  1  0     0  0
 16 20  2  0     0  0
 17 21  1  0     0  0
 18 22  1  0     0  0
 21 22  2  0     0  0
 27 28  1  0     0  0
 28 29  1  0     0  0
 29 30  1  0     0  0
M  END
> <standard_type>
pIC50

> <# Confs.>
25

> <canonical_smiles>
ClC(N=C1CCCC)=C(CO)N1CC2=CC=C(OCC3=CC=CC=C3C(O)=O)C=C2

> <standard_relation>
=

> <Publication_ID>
nan

> <predicted_activity_value>
5.920818753952375

> <actual_activity_value>
6.036212172654444

> <Compound>
14

> <standard_units>
nM

> hash
17989980845622856130

$$$$
14_
XXILIB    08252103513D 0   0.00000     0.00000

 30 32  0     1  0            999 V2000
    5.0080   -1.4815   -0.1021 Cl  0  0  0  0  0  1           0  0  0
   -1.9861    0.1214    5.3177 O   0  0  0  0  0  2           0  0  0
   -1.4619   -3.5686    7.8301 O   0  0  0  0  0  2           0  0  0
   -0.1977   -2.2121    9.1557 O   0  0  0  0  0  2           0  0  0
    1.6760   -2.9488    1.3002 O   0  0  0  0  0  2           0  0  0
    1.4519   -0.0000    0.0000 N   0  0  0  0  0  3           0  0  0
    3.5357    0.7699   -0.0300 N   0  0  0  0  0  3           0  0  0
    3.5498   -0.5999   -0.0532 C   0  0  0  0  0  4           0  0  0
   -1.5169   -0.0027    4.0399 C   0  0  0  0  0  4           0  0  0
    2.2647    1.1169   -0.0000 C   0  0  0  0  0  4           0  0  0
    2.2666   -1.1149   -0.0368 C   0  0  0  0  0  4           0  0  0
   -2.3027   -1.4499    8.5292 C   0  0  0  0  0  4           0  0  0
   -2.7550   -0.7888    7.3728 C   0  0  0  0  0  4           0  0  0
   -0.5415    0.0000    1.3968 C   0  0  0  0  0  4           0  0  0
   -1.2868   -1.2088    3.3735 C   0  0  0  0  0  4           0  0  0
   -1.2590    1.2026    3.3800 C   0  0  0  0  0  4           0  0  0
   -2.8167   -1.1158    9.7907 C   0  0  0  0  0  4           0  0  0
   -3.7361    0.2063    7.5173 C   0  0  0  0  0  4           0  0  0
   -0.7996   -1.2048    2.0624 C   0  0  0  0  0  4           0  0  0
   -0.7736    1.2049    2.0706 C   0  0  0  0  0  4           0  0  0
   -3.7844   -0.1202    9.9096 C   0  0  0  0  0  4           0  0  0
   -4.2435    0.5406    8.7743 C   0  0  0  0  0  4           0  0  0
   -1.3056   -2.5308    8.4505 C   0  0  0  0  0  4           0  0  0
   -2.2515   -1.1047    5.9953 C   0  0  0  0  0  4           0  0  0
    1.7864   -2.5134   -0.0479 C   0  0  0  0  0  4           0  0  0
    0.0000    0.0000    0.0000 C   0  0  0  0  0  4           0  0  0
    1.7718    2.5209    0.0303 C   0  0  0  0  0  4           0  0  0
    2.5015    3.4126   -0.9695 C   0  0  0  0  0  4           0  0  0
    2.0351    4.8691   -0.9821 C   0  0  0  0  0  4           0  0  0
    2.7862    5.7247   -1.9913 C   0  0  0  0  0  4           0  0  0
  1  8  1  0     0  0
  2  9  1  0     0  0
  2 24  1  0     0  0
  3 23  2  0     0  0
  4 23  1  0     0  0
  5 25  1  0     0  0
  6 10  1  0     0  0
  6 11  1  0     0  0
  6 26  1  0     0  0
  7  8  1  0     0  0
  7 10  2  0     0  0
  8 11  2  0     0  0
  9 15  2  0     0  0
  9 16  1  0     0  0
 10 27  1  0     0  0
 11 25  1  0     0  0
 12 13  1  0     0  0
 12 17  2  0     0  0
 12 23  1  0     0  0
 13 18  2  0     0  0
 13 24  1  0     0  0
 14 19  2  0     0  0
 14 20  1  0     0  0
 14 26  1  0     0  0
 15 19  1  0     0  0
 16 20  2  0     0  0
 17 21  1  0     0  0
 18 22  1  0     0  0
 21 22  2  0     0  0
 27 28  1  0     0  0
 28 29  1  0     0  0
 29 30  1  0     0  0
M  END
> <standard_type>
pIC50

> <# Confs.>
25

> <canonical_smiles>
ClC(N=C1CCCC)=C(CO)N1CC2=CC=C(OCC3=CC=CC=C3C(O)=O)C=C2

> <standard_relation>
=

> <Publication_ID>
nan

> <predicted_activity_value>
5.920818753952375

> <actual_activity_value>
6.036212172654444

> <Compound>
14

> <standard_units>
nM

> hash
17989980845622856130

$$$$
14_
XXILIB    08252103513D 0   0.00000     0.00000

 30 32  0     1  0            999 V2000
    5.0080   -1.4815   -0.1021 Cl  0  0  0  0  0  1           0  0  0
   -1.9861    0.1214    5.3177 O   0  0  0  0  0  2           0  0  0
   -4.1542   -3.4941    6.7965 O   0  0  0  0  0  2           0  0  0
   -5.9184   -2.0790    7.0804 O   0  0  0  0  0  2           0  0  0
    1.6760   -2.9488    1.3002 O   0  0  0  0  0  2           0  0  0
    1.4519   -0.0000    0.0000 N   0  0  0  0  0  3           0  0  0
    3.5357    0.7699   -0.0300 N   0  0  0  0  0  3           0  0  0
    3.5498   -0.5999   -0.0532 C   0  0  0  0  0  4           0  0  0
   -1.5169   -0.0027    4.0399 C   0  0  0  0  0  4           0  0  0
    2.2647    1.1169   -0.0000 C   0  0  0  0  0  4           0  0  0
    2.2666   -1.1149   -0.0368 C   0  0  0  0  0  4           0  0  0
   -3.8641   -1.4299    7.9538 C   0  0  0  0  0  4           0  0  0
   -2.7550   -0.7888    7.3728 C   0  0  0  0  0  4           0  0  0
   -0.5415    0.0000    1.3968 C   0  0  0  0  0  4           0  0  0
   -1.2868   -1.2088    3.3735 C   0  0  0  0  0  4           0  0  0
   -1.2590    1.2026    3.3800 C   0  0  0  0  0  4           0  0  0
   -4.2932   -1.0863    9.2443 C   0  0  0  0  0  4           0  0  0
   -2.0970    0.2049    8.1167 C   0  0  0  0  0  4           0  0  0
   -0.7996   -1.2048    2.0624 C   0  0  0  0  0  4           0  0  0
   -0.7736    1.2049    2.0706 C   0  0  0  0  0  4           0  0  0
   -3.6200   -0.1022    9.9656 C   0  0  0  0  0  4           0  0  0
   -2.5229    0.5426    9.4028 C   0  0  0  0  0  4           0  0  0
   -4.6271   -2.4526    7.2186 C   0  0  0  0  0  4           0  0  0
   -2.2515   -1.1047    5.9953 C   0  0  0  0  0  4           0  0  0
    1.7864   -2.5134   -0.0479 C   0  0  0  0  0  4           0  0  0
    0.0000    0.0000    0.0000 C   0  0  0  0  0  4           0  0  0
    1.7718    2.5209    0.0303 C   0  0  0  0  0  4           0  0  0
    2.5015    3.4126   -0.9695 C   0  0  0  0  0  4           0  0  0
    2.0351    4.8691   -0.9821 C   0  0  0  0  0  4           0  0  0
    2.7862    5.7247   -1.9913 C   0  0  0  0  0  4           0  0  0
  1  8  1  0     0  0
  2  9  1  0     0  0
  2 24  1  0     0  0
  3 23  2  0     0  0
  4 23  1  0     0  0
  5 25  1  0     0  0
  6 10  1  0     0  0
  6 11  1  0     0  0
  6 26  1  0     0  0
  7  8  1  0     0  0
  7 10  2  0     0  0
  8 11  2  0     0  0
  9 15  2  0     0  0
  9 16  1  0     0  0
 10 27  1  0     0  0
 11 25  1  0     0  0
 12 13  1  0     0  0
 12 17  2  0     0  0
 12 23  1  0     0  0
 13 18  2  0     0  0
 13 24  1  0     0  0
 14 19  2  0     0  0
 14 20  1  0     0  0
 14 26  1  0     0  0
 15 19  1  0     0  0
 16 20  2  0     0  0
 17 21  1  0     0  0
 18 22  1  0     0  0
 21 22  2  0     0  0
 27 28  1  0     0  0
 28 29  1  0     0  0
 29 30  1  0     0  0
M  END
> <standard_type>
pIC50

> <# Confs.>
25

> <canonical_smiles>
ClC(N=C1CCCC)=C(CO)N1CC2=CC=C(OCC3=CC=CC=C3C(O)=O)C=C2

> <standard_relation>
=

> <Publication_ID>
nan

> <predicted_activity_value>
5.920818753952375

> <actual_activity_value>
6.036212172654444

> <Compound>
14

> <standard_units>
nM

> hash
17989980845622856130

$$$$
14_
XXILIB    08252103513D 0   0.00000     0.00000

 30 32  0     1  0            999 V2000
    5.0080   -1.4815   -0.1021 Cl  0  0  0  0  0  1           0  0  0
   -2.1174   -0.1214    5.2667 O   0  0  0  0  0  2           0  0  0
   -1.5127    3.4941    7.8206 O   0  0  0  0  0  2           0  0  0
   -0.4008    2.0790    9.2195 O   0  0  0  0  0  2           0  0  0
    1.6760   -2.9488    1.3002 O   0  0  0  0  0  2           0  0  0
    1.4519   -0.0000    0.0000 N   0  0  0  0  0  3           0  0  0
    3.5357    0.7699   -0.0300 N   0  0  0  0  0  3           0  0  0
    3.5498   -0.5999   -0.0532 C   0  0  0  0  0  4           0  0  0
   -1.6027    0.0027    4.0066 C   0  0  0  0  0  4           0  0  0
    2.2647    1.1169   -0.0000 C   0  0  0  0  0  4           0  0  0
    2.2666   -1.1149   -0.0368 C   0  0  0  0  0  4           0  0  0
   -2.5071    1.4299    8.4799 C   0  0  0  0  0  4           0  0  0
   -2.9347    0.7888    7.3031 C   0  0  0  0  0  4           0  0  0
   -0.5415    0.0000    1.3968 C   0  0  0  0  0  4           0  0  0
   -1.3234    1.2088    3.3593 C   0  0  0  0  0  4           0  0  0
   -1.3484   -1.2026    3.3454 C   0  0  0  0  0  4           0  0  0
   -3.0600    1.0863    9.7224 C   0  0  0  0  0  4           0  0  0
   -3.9222   -0.2049    7.4092 C   0  0  0  0  0  4           0  0  0
   -0.7996    1.2048    2.0624 C   0  0  0  0  0  4           0  0  0
   -0.8243   -1.2049    2.0510 C   0  0  0  0  0  4           0  0  0
   -4.0434    0.1022    9.8014 C   0  0  0  0  0  4           0  0  0
   -4.4745   -0.5426    8.6462 C   0  0  0  0  0  4           0  0  0
   -1.4479    2.4526    8.4511 C   0  0  0  0  0  4           0  0  0
   -2.3781    1.1047    5.9462 C   0  0  0  0  0  4           0  0  0
    1.7864   -2.5134   -0.0479 C   0  0  0  0  0  4           0  0  0
    0.0000   -0.0000    0.0000 C   0  0  0  0  0  4           0  0  0
    1.7718    2.5209    0.0303 C   0  0  0  0  0  4           0  0  0
    2.5015    3.4126   -0.9695 C   0  0  0  0  0  4           0  0  0
    2.3709    2.9726   -2.4284 C   0  0  0  0  0  4           0  0  0
    3.1117    3.8866   -3.3932 C   0  0  0  0  0  4           0  0  0
  1  8  1  0     0  0
  2  9  1  0     0  0
  2 24  1  0     0  0
  3 23  2  0     0  0
  4 23  1  0     0  0
  5 25  1  0     0  0
  6 10  1  0     0  0
  6 11  1  0     0  0
  6 26  1  0     0  0
  7  8  1  0     0  0
  7 10  2  0     0  0
  8 11  2  0     0  0
  9 15  2  0     0  0
  9 16  1  0     0  0
 10 27  1  0     0  0
 11 25  1  0     0  0
 12 13  1  0     0  0
 12 17  2  0     0  0
 12 23  1  0     0  0
 13 18  2  0     0  0
 13 24  1  0     0  0
 14 19  2  0     0  0
 14 20  1  0     0  0
 14 26  1  0     0  0
 15 19  1  0     0  0
 16 20  2  0     0  0
 17 21  1  0     0  0
 18 22  1  0     0  0
 21 22  2  0     0  0
 27 28  1  0     0  0
 28 29  1  0     0  0
 29 30  1  0     0  0
M  END
> <standard_type>
pIC50

> <# Confs.>
25

> <canonical_smiles>
ClC(N=C1CCCC)=C(CO)N1CC2=CC=C(OCC3=CC=CC=C3C(O)=O)C=C2

> <standard_relation>
=

> <Publication_ID>
nan

> <predicted_activity_value>
5.920818753952375

> <actual_activity_value>
6.036212172654444

> <Compound>
14

> <standard_units>
nM

> hash
17989980845622856130

$$$$
14_
XXILIB    08252103513D 0   0.00000     0.00000

 30 32  0     1  0            999 V2000
    5.0080   -1.4815   -0.1021 Cl  0  0  0  0  0  1           0  0  0
   -1.9861    0.1214    5.3177 O   0  0  0  0  0  2           0  0  0
    0.0911   -1.8433    8.0021 O   0  0  0  0  0  2           0  0  0
    0.1957    0.3178    8.7194 O   0  0  0  0  0  2           0  0  0
    1.6760   -2.9488    1.3002 O   0  0  0  0  0  2           0  0  0
    1.4519   -0.0000    0.0000 N   0  0  0  0  0  3           0  0  0
    3.5357    0.7699   -0.0300 N   0  0  0  0  0  3           0  0  0
    3.5498   -0.5999   -0.0532 C   0  0  0  0  0  4           0  0  0
   -1.5169   -0.0027    4.0399 C   0  0  0  0  0  4           0  0  0
    2.2647    1.1169   -0.0000 C   0  0  0  0  0  4           0  0  0
    2.2666   -1.1149   -0.0368 C   0  0  0  0  0  4           0  0  0
   -1.9095   -0.6407    8.4873 C   0  0  0  0  0  4           0  0  0
   -2.7550   -0.7888    7.3728 C   0  0  0  0  0  4           0  0  0
   -0.5415    0.0000    1.3968 C   0  0  0  0  0  4           0  0  0
   -1.2868   -1.2088    3.3735 C   0  0  0  0  0  4           0  0  0
   -1.2590    1.2026    3.3800 C   0  0  0  0  0  4           0  0  0
   -2.4398   -0.3524    9.7534 C   0  0  0  0  0  4           0  0  0
   -4.1393   -0.6464    7.5655 C   0  0  0  0  0  4           0  0  0
   -0.7996   -1.2048    2.0624 C   0  0  0  0  0  4           0  0  0
   -0.7736    1.2049    2.0706 C   0  0  0  0  0  4           0  0  0
   -3.8161   -0.2087    9.9184 C   0  0  0  0  0  4           0  0  0
   -4.6651   -0.3552    8.8257 C   0  0  0  0  0  4           0  0  0
   -0.4521   -0.8154    8.3691 C   0  0  0  0  0  4           0  0  0
   -2.2515   -1.1047    5.9953 C   0  0  0  0  0  4           0  0  0
    1.7864   -2.5134   -0.0479 C   0  0  0  0  0  4           0  0  0
    0.0000    0.0000    0.0000 C   0  0  0  0  0  4           0  0  0
    1.7718    2.5209    0.0303 C   0  0  0  0  0  4           0  0  0
    2.5015    3.4126   -0.9695 C   0  0  0  0  0  4           0  0  0
    2.3709    2.9726   -2.4284 C   0  0  0  0  0  4           0  0  0
    3.1117    3.8866   -3.3932 C   0  0  0  0  0  4           0  0  0
  1  8  1  0     0  0
  2  9  1  0     0  0
  2 24  1  0     0  0
  3 23  2  0     0  0
  4 23  1  0     0  0
  5 25  1  0     0  0
  6 10  1  0     0  0
  6 11  1  0     0  0
  6 26  1  0     0  0
  7  8  1  0     0  0
  7 10  2  0     0  0
  8 11  2  0     0  0
  9 15  2  0     0  0
  9 16  1  0     0  0
 10 27  1  0     0  0
 11 25  1  0     0  0
 12 13  1  0     0  0
 12 17  2  0     0  0
 12 23  1  0     0  0
 13 18  2  0     0  0
 13 24  1  0     0  0
 14 19  2  0     0  0
 14 20  1  0     0  0
 14 26  1  0     0  0
 15 19  1  0     0  0
 16 20  2  0     0  0
 17 21  1  0     0  0
 18 22  1  0     0  0
 21 22  2  0     0  0
 27 28  1  0     0  0
 28 29  1  0     0  0
 29 30  1  0     0  0
M  END
> <standard_type>
pIC50

> <# Confs.>
25

> <canonical_smiles>
ClC(N=C1CCCC)=C(CO)N1CC2=CC=C(OCC3=CC=CC=C3C(O)=O)C=C2

> <standard_relation>
=

> <Publication_ID>
nan

> <predicted_activity_value>
5.920818753952375

> <actual_activity_value>
6.036212172654444

> <Compound>
14

> <standard_units>
nM

> hash
17989980845622856130

$$$$
14_
XXILIB    08252103513D 0   0.00000     0.00000

 30 32  0     1  0            999 V2000
    5.0080   -1.4815   -0.1021 Cl  0  0  0  0  0  1           0  0  0
   -2.1174   -0.1214    5.2667 O   0  0  0  0  0  2           0  0  0
   -4.1981    3.5686    6.7693 O   0  0  0  0  0  2           0  0  0
   -6.0255    2.2121    6.8963 O   0  0  0  0  0  2           0  0  0
    1.6760   -2.9488    1.3002 O   0  0  0  0  0  2           0  0  0
    1.4519   -0.0000    0.0000 N   0  0  0  0  0  3           0  0  0
    3.5357    0.7699   -0.0300 N   0  0  0  0  0  3           0  0  0
    3.5498   -0.5999   -0.0532 C   0  0  0  0  0  4           0  0  0
   -1.6027    0.0027    4.0066 C   0  0  0  0  0  4           0  0  0
    2.2647    1.1169   -0.0000 C   0  0  0  0  0  4           0  0  0
    2.2666   -1.1149   -0.0368 C   0  0  0  0  0  4           0  0  0
   -4.0483    1.4499    7.8524 C   0  0  0  0  0  4           0  0  0
   -2.9347    0.7888    7.3031 C   0  0  0  0  0  4           0  0  0
   -0.5415    0.0000    1.3968 C   0  0  0  0  0  4           0  0  0
   -1.3234    1.2088    3.3593 C   0  0  0  0  0  4           0  0  0
   -1.3484   -1.2026    3.3454 C   0  0  0  0  0  4           0  0  0
   -4.5190    1.1158    9.1308 C   0  0  0  0  0  4           0  0  0
   -2.3074   -0.2063    8.0712 C   0  0  0  0  0  4           0  0  0
   -0.7996    1.2048    2.0624 C   0  0  0  0  0  4           0  0  0
   -0.8243   -1.2049    2.0510 C   0  0  0  0  0  4           0  0  0
   -3.8843    0.1202    9.8709 C   0  0  0  0  0  4           0  0  0
   -2.7799   -0.5406    9.3418 C   0  0  0  0  0  4           0  0  0
   -4.7318    2.5308    7.1222 C   0  0  0  0  0  4           0  0  0
   -2.3781    1.1047    5.9462 C   0  0  0  0  0  4           0  0  0
    1.7864   -2.5134   -0.0479 C   0  0  0  0  0  4           0  0  0
    0.0000   -0.0000    0.0000 C   0  0  0  0  0  4           0  0  0
    1.7718    2.5209    0.0303 C   0  0  0  0  0  4           0  0  0
    2.5015    3.4126   -0.9695 C   0  0  0  0  0  4           0  0  0
    2.0351    4.8691   -0.9821 C   0  0  0  0  0  4           0  0  0
    2.7862    5.7247   -1.9913 C   0  0  0  0  0  4           0  0  0
  1  8  1  0     0  0
  2  9  1  0     0  0
  2 24  1  0     0  0
  3 23  2  0     0  0
  4 23  1  0     0  0
  5 25  1  0     0  0
  6 10  1  0     0  0
  6 11  1  0     0  0
  6 26  1  0     0  0
  7  8  1  0     0  0
  7 10  2  0     0  0
  8 11  2  0     0  0
  9 15  2  0     0  0
  9 16  1  0     0  0
 10 27  1  0     0  0
 11 25  1  0     0  0
 12 13  1  0     0  0
 12 17  2  0     0  0
 12 23  1  0     0  0
 13 18  2  0     0  0
 13 24  1  0     0  0
 14 19  2  0     0  0
 14 20  1  0     0  0
 14 26  1  0     0  0
 15 19  1  0     0  0
 16 20  2  0     0  0
 17 21  1  0     0  0
 18 22  1  0     0  0
 21 22  2  0     0  0
 27 28  1  0     0  0
 28 29  1  0     0  0
 29 30  1  0     0  0
M  END
> <standard_type>
pIC50

> <# Confs.>
25

> <canonical_smiles>
ClC(N=C1CCCC)=C(CO)N1CC2=CC=C(OCC3=CC=CC=C3C(O)=O)C=C2

> <standard_relation>
=

> <Publication_ID>
nan

> <predicted_activity_value>
5.920818753952375

> <actual_activity_value>
6.036212172654444

> <Compound>
14

> <standard_units>
nM

> hash
17989980845622856130

$$$$
14_
XXILIB    08252103513D 0   0.00000     0.00000

 30 32  0     1  0            999 V2000
    5.0080   -1.4815   -0.1021 Cl  0  0  0  0  0  1           0  0  0
   -2.1174   -0.1214    5.2667 O   0  0  0  0  0  2           0  0  0
   -5.4613    1.8433    5.8495 O   0  0  0  0  0  2           0  0  0
   -6.0220   -0.3178    6.3089 O   0  0  0  0  0  2           0  0  0
    1.6760   -2.9488    1.3002 O   0  0  0  0  0  2           0  0  0
    1.4519   -0.0000    0.0000 N   0  0  0  0  0  3           0  0  0
    3.5357    0.7699   -0.0300 N   0  0  0  0  0  3           0  0  0
    3.5498   -0.5999   -0.0532 C   0  0  0  0  0  4           0  0  0
   -1.6027    0.0027    4.0066 C   0  0  0  0  0  4           0  0  0
    2.2647    1.1169   -0.0000 C   0  0  0  0  0  4           0  0  0
    2.2666   -1.1149   -0.0368 C   0  0  0  0  0  4           0  0  0
   -4.3105    0.6407    7.5565 C   0  0  0  0  0  4           0  0  0
   -2.9347    0.7888    7.3031 C   0  0  0  0  0  4           0  0  0
   -0.5415    0.0000    1.3968 C   0  0  0  0  0  4           0  0  0
   -1.3234    1.2088    3.3593 C   0  0  0  0  0  4           0  0  0
   -1.3484   -1.2026    3.3454 C   0  0  0  0  0  4           0  0  0
   -4.7722    0.3524    8.8492 C   0  0  0  0  0  4           0  0  0
   -2.0420    0.6464    8.3786 C   0  0  0  0  0  4           0  0  0
   -0.7996    1.2048    2.0624 C   0  0  0  0  0  4           0  0  0
   -0.8243   -1.2049    2.0510 C   0  0  0  0  0  4           0  0  0
   -3.8668    0.2087    9.8987 C   0  0  0  0  0  4           0  0  0
   -2.5031    0.3552    9.6639 C   0  0  0  0  0  4           0  0  0
   -5.3074    0.8154    6.4868 C   0  0  0  0  0  4           0  0  0
   -2.3781    1.1047    5.9462 C   0  0  0  0  0  4           0  0  0
    1.7864   -2.5134   -0.0479 C   0  0  0  0  0  4           0  0  0
    0.0000   -0.0000    0.0000 C   0  0  0  0  0  4           0  0  0
    1.7718    2.5209    0.0303 C   0  0  0  0  0  4           0  0  0
    2.5015    3.4126   -0.9695 C   0  0  0  0  0  4           0  0  0
    2.3709    2.9726   -2.4284 C   0  0  0  0  0  4           0  0  0
    3.1117    3.8866   -3.3932 C   0  0  0  0  0  4           0  0  0
  1  8  1  0     0  0
  2  9  1  0     0  0
  2 24  1  0     0  0
  3 23  2  0     0  0
  4 23  1  0     0  0
  5 25  1  0     0  0
  6 10  1  0     0  0
  6 11  1  0     0  0
  6 26  1  0     0  0
  7  8  1  0     0  0
  7 10  2  0     0  0
  8 11  2  0     0  0
  9 15  2  0     0  0
  9 16  1  0     0  0
 10 27  1  0     0  0
 11 25  1  0     0  0
 12 13  1  0     0  0
 12 17  2  0     0  0
 12 23  1  0     0  0
 13 18  2  0     0  0
 13 24  1  0     0  0
 14 19  2  0     0  0
 14 20  1  0     0  0
 14 26  1  0     0  0
 15 19  1  0     0  0
 16 20  2  0     0  0
 17 21  1  0     0  0
 18 22  1  0     0  0
 21 22  2  0     0  0
 27 28  1  0     0  0
 28 29  1  0     0  0
 29 30  1  0     0  0
M  END
> <standard_type>
pIC50

> <# Confs.>
25

> <canonical_smiles>
ClC(N=C1CCCC)=C(CO)N1CC2=CC=C(OCC3=CC=CC=C3C(O)=O)C=C2

> <standard_relation>
=

> <Publication_ID>
nan

> <predicted_activity_value>
5.920818753952375

> <actual_activity_value>
6.036212172654444

> <Compound>
14

> <standard_units>
nM

> hash
17989980845622856130

$$$$
14_
XXILIB    08252103513D 0   0.00000     0.00000

 30 32  0     1  0            999 V2000
    5.0080   -1.4815   -0.1021 Cl  0  0  0  0  0  1           0  0  0
   -2.1174   -0.1214    5.2667 O   0  0  0  0  0  2           0  0  0
   -1.5127    3.4941    7.8206 O   0  0  0  0  0  2           0  0  0
   -0.4008    2.0790    9.2195 O   0  0  0  0  0  2           0  0  0
    1.6760   -2.9488    1.3002 O   0  0  0  0  0  2           0  0  0
    1.4519   -0.0000    0.0000 N   0  0  0  0  0  3           0  0  0
    3.5357    0.7699   -0.0300 N   0  0  0  0  0  3           0  0  0
    3.5498   -0.5999   -0.0532 C   0  0  0  0  0  4           0  0  0
   -1.6027    0.0027    4.0066 C   0  0  0  0  0  4           0  0  0
    2.2647    1.1169   -0.0000 C   0  0  0  0  0  4           0  0  0
    2.2666   -1.1149   -0.0368 C   0  0  0  0  0  4           0  0  0
   -2.5071    1.4299    8.4799 C   0  0  0  0  0  4           0  0  0
   -2.9347    0.7888    7.3031 C   0  0  0  0  0  4           0  0  0
   -0.5415    0.0000    1.3968 C   0  0  0  0  0  4           0  0  0
   -1.3234    1.2088    3.3593 C   0  0  0  0  0  4           0  0  0
   -1.3484   -1.2026    3.3454 C   0  0  0  0  0  4           0  0  0
   -3.0600    1.0863    9.7224 C   0  0  0  0  0  4           0  0  0
   -3.9222   -0.2049    7.4092 C   0  0  0  0  0  4           0  0  0
   -0.7996    1.2048    2.0624 C   0  0  0  0  0  4           0  0  0
   -0.8243   -1.2049    2.0510 C   0  0  0  0  0  4           0  0  0
   -4.0434    0.1022    9.8014 C   0  0  0  0  0  4           0  0  0
   -4.4745   -0.5426    8.6462 C   0  0  0  0  0  4           0  0  0
   -1.4479    2.4526    8.4511 C   0  0  0  0  0  4           0  0  0
   -2.3781    1.1047    5.9462 C   0  0  0  0  0  4           0  0  0
    1.7864   -2.5134   -0.0479 C   0  0  0  0  0  4           0  0  0
    0.0000   -0.0000    0.0000 C   0  0  0  0  0  4           0  0  0
    1.7718    2.5209    0.0303 C   0  0  0  0  0  4           0  0  0
    2.5015    3.4126   -0.9695 C   0  0  0  0  0  4           0  0  0
    2.0351    4.8691   -0.9821 C   0  0  0  0  0  4           0  0  0
    2.7862    5.7247   -1.9913 C   0  0  0  0  0  4           0  0  0
  1  8  1  0     0  0
  2  9  1  0     0  0
  2 24  1  0     0  0
  3 23  2  0     0  0
  4 23  1  0     0  0
  5 25  1  0     0  0
  6 10  1  0     0  0
  6 11  1  0     0  0
  6 26  1  0     0  0
  7  8  1  0     0  0
  7 10  2  0     0  0
  8 11  2  0     0  0
  9 15  2  0     0  0
  9 16  1  0     0  0
 10 27  1  0     0  0
 11 25  1  0     0  0
 12 13  1  0     0  0
 12 17  2  0     0  0
 12 23  1  0     0  0
 13 18  2  0     0  0
 13 24  1  0     0  0
 14 19  2  0     0  0
 14 20  1  0     0  0
 14 26  1  0     0  0
 15 19  1  0     0  0
 16 20  2  0     0  0
 17 21  1  0     0  0
 18 22  1  0     0  0
 21 22  2  0     0  0
 27 28  1  0     0  0
 28 29  1  0     0  0
 29 30  1  0     0  0
M  END
> <standard_type>
pIC50

> <# Confs.>
25

> <canonical_smiles>
ClC(N=C1CCCC)=C(CO)N1CC2=CC=C(OCC3=CC=CC=C3C(O)=O)C=C2

> <standard_relation>
=

> <Publication_ID>
nan

> <predicted_activity_value>
5.920818753952375

> <actual_activity_value>
6.036212172654444

> <Compound>
14

> <standard_units>
nM

> hash
17989980845622856130

$$$$
14_
XXILIB    08252103513D 0   0.00000     0.00000

 30 32  0     1  0            999 V2000
    5.0080   -1.4815   -0.1021 Cl  0  0  0  0  0  1           0  0  0
   -2.1174   -0.1214    5.2667 O   0  0  0  0  0  2           0  0  0
   -0.0537    1.6954    8.0003 O   0  0  0  0  0  2           0  0  0
   -0.0892   -0.4543    8.7575 O   0  0  0  0  0  2           0  0  0
    1.6760   -2.9488    1.3002 O   0  0  0  0  0  2           0  0  0
    1.4519   -0.0000    0.0000 N   0  0  0  0  0  3           0  0  0
    3.5357    0.7699   -0.0300 N   0  0  0  0  0  3           0  0  0
    3.5498   -0.5999   -0.0532 C   0  0  0  0  0  4           0  0  0
   -1.6027    0.0027    4.0066 C   0  0  0  0  0  4           0  0  0
    2.2647    1.1169   -0.0000 C   0  0  0  0  0  4           0  0  0
    2.2666   -1.1149   -0.0368 C   0  0  0  0  0  4           0  0  0
   -2.1309    0.6124    8.4440 C   0  0  0  0  0  4           0  0  0
   -2.9347    0.7888    7.3031 C   0  0  0  0  0  4           0  0  0
   -0.5415    0.0000    1.3968 C   0  0  0  0  0  4           0  0  0
   -1.3234    1.2088    3.3593 C   0  0  0  0  0  4           0  0  0
   -1.3484   -1.2026    3.3454 C   0  0  0  0  0  4           0  0  0
   -2.7089    0.3107    9.6858 C   0  0  0  0  0  4           0  0  0
   -4.3257    0.6484    7.4423 C   0  0  0  0  0  4           0  0  0
   -0.7996    1.2048    2.0624 C   0  0  0  0  0  4           0  0  0
   -0.8243   -1.2049    2.0510 C   0  0  0  0  0  4           0  0  0
   -4.0918    0.1833    9.8005 C   0  0  0  0  0  4           0  0  0
   -4.8996    0.3523    8.6801 C   0  0  0  0  0  4           0  0  0
   -0.6632    0.7048    8.3661 C   0  0  0  0  0  4           0  0  0
   -2.3781    1.1047    5.9462 C   0  0  0  0  0  4           0  0  0
    1.7864   -2.5134   -0.0479 C   0  0  0  0  0  4           0  0  0
    0.0000   -0.0000    0.0000 C   0  0  0  0  0  4           0  0  0
    1.7718    2.5209    0.0303 C   0  0  0  0  0  4           0  0  0
    2.5015    3.4126   -0.9695 C   0  0  0  0  0  4           0  0  0
    2.3709    2.9726   -2.4284 C   0  0  0  0  0  4           0  0  0
    3.1117    3.8866   -3.3932 C   0  0  0  0  0  4           0  0  0
  1  8  1  0     0  0
  2  9  1  0     0  0
  2 24  1  0     0  0
  3 23  2  0     0  0
  4 23  1  0     0  0
  5 25  1  0     0  0
  6 10  1  0     0  0
  6 11  1  0     0  0
  6 26  1  0     0  0
  7  8  1  0     0  0
  7 10  2  0     0  0
  8 11  2  0     0  0
  9 15  2  0     0  0
  9 16  1  0     0  0
 10 27  1  0     0  0
 11 25  1  0     0  0
 12 13  1  0     0  0
 12 17  2  0     0  0
 12 23  1  0     0  0
 13 18  2  0     0  0
 13 24  1  0     0  0
 14 19  2  0     0  0
 14 20  1  0     0  0
 14 26  1  0     0  0
 15 19  1  0     0  0
 16 20  2  0     0  0
 17 21  1  0     0  0
 18 22  1  0     0  0
 21 22  2  0     0  0
 27 28  1  0     0  0
 28 29  1  0     0  0
 29 30  1  0     0  0
M  END
> <standard_type>
pIC50

> <# Confs.>
25

> <canonical_smiles>
ClC(N=C1CCCC)=C(CO)N1CC2=CC=C(OCC3=CC=CC=C3C(O)=O)C=C2

> <standard_relation>
=

> <Publication_ID>
nan

> <predicted_activity_value>
5.920818753952375

> <actual_activity_value>
6.036212172654444

> <Compound>
14

> <standard_units>
nM

> hash
17989980845622856130

$$$$
14_
XXILIB    08252103513D 0   0.00000     0.00000

 30 32  0     1  0            999 V2000
    5.0080   -1.4815   -0.1021 Cl  0  0  0  0  0  1           0  0  0
   -1.9861    0.1214    5.3177 O   0  0  0  0  0  2           0  0  0
    0.0911   -1.8433    8.0021 O   0  0  0  0  0  2           0  0  0
    0.1957    0.3178    8.7194 O   0  0  0  0  0  2           0  0  0
    1.6760   -2.9488    1.3002 O   0  0  0  0  0  2           0  0  0
    1.4519   -0.0000    0.0000 N   0  0  0  0  0  3           0  0  0
    3.5357    0.7699   -0.0300 N   0  0  0  0  0  3           0  0  0
    3.5498   -0.5999   -0.0532 C   0  0  0  0  0  4           0  0  0
   -1.5169   -0.0027    4.0399 C   0  0  0  0  0  4           0  0  0
    2.2647    1.1169   -0.0000 C   0  0  0  0  0  4           0  0  0
    2.2666   -1.1149   -0.0368 C   0  0  0  0  0  4           0  0  0
   -1.9095   -0.6407    8.4873 C   0  0  0  0  0  4           0  0  0
   -2.7550   -0.7888    7.3728 C   0  0  0  0  0  4           0  0  0
   -0.5415    0.0000    1.3968 C   0  0  0  0  0  4           0  0  0
   -1.2868   -1.2088    3.3735 C   0  0  0  0  0  4           0  0  0
   -1.2590    1.2026    3.3800 C   0  0  0  0  0  4           0  0  0
   -2.4398   -0.3524    9.7534 C   0  0  0  0  0  4           0  0  0
   -4.1393   -0.6464    7.5655 C   0  0  0  0  0  4           0  0  0
   -0.7996   -1.2048    2.0624 C   0  0  0  0  0  4           0  0  0
   -0.7736    1.2049    2.0706 C   0  0  0  0  0  4           0  0  0
   -3.8161   -0.2087    9.9184 C   0  0  0  0  0  4           0  0  0
   -4.6651   -0.3552    8.8257 C   0  0  0  0  0  4           0  0  0
   -0.4521   -0.8154    8.3691 C   0  0  0  0  0  4           0  0  0
   -2.2515   -1.1047    5.9953 C   0  0  0  0  0  4           0  0  0
    1.7864   -2.5134   -0.0479 C   0  0  0  0  0  4           0  0  0
    0.0000    0.0000    0.0000 C   0  0  0  0  0  4           0  0  0
    1.7718    2.5209    0.0303 C   0  0  0  0  0  4           0  0  0
    2.5015    3.4126   -0.9695 C   0  0  0  0  0  4           0  0  0
    2.0351    4.8691   -0.9821 C   0  0  0  0  0  4           0  0  0
    2.7862    5.7247   -1.9913 C   0  0  0  0  0  4           0  0  0
  1  8  1  0     0  0
  2  9  1  0     0  0
  2 24  1  0     0  0
  3 23  2  0     0  0
  4 23  1  0     0  0
  5 25  1  0     0  0
  6 10  1  0     0  0
  6 11  1  0     0  0
  6 26  1  0     0  0
  7  8  1  0     0  0
  7 10  2  0     0  0
  8 11  2  0     0  0
  9 15  2  0     0  0
  9 16  1  0     0  0
 10 27  1  0     0  0
 11 25  1  0     0  0
 12 13  1  0     0  0
 12 17  2  0     0  0
 12 23  1  0     0  0
 13 18  2  0     0  0
 13 24  1  0     0  0
 14 19  2  0     0  0
 14 20  1  0     0  0
 14 26  1  0     0  0
 15 19  1  0     0  0
 16 20  2  0     0  0
 17 21  1  0     0  0
 18 22  1  0     0  0
 21 22  2  0     0  0
 27 28  1  0     0  0
 28 29  1  0     0  0
 29 30  1  0     0  0
M  END
> <standard_type>
pIC50

> <# Confs.>
25

> <canonical_smiles>
ClC(N=C1CCCC)=C(CO)N1CC2=CC=C(OCC3=CC=CC=C3C(O)=O)C=C2

> <standard_relation>
=

> <Publication_ID>
nan

> <predicted_activity_value>
5.920818753952375

> <actual_activity_value>
6.036212172654444

> <Compound>
14

> <standard_units>
nM

> hash
17989980845622856130

$$$$
14_
XXILIB    08252103513D 0   0.00000     0.00000

 30 32  0     1  0            999 V2000
    5.0080   -1.4815   -0.1021 Cl  0  0  0  0  0  1           0  0  0
   -2.1174   -0.1214    5.2667 O   0  0  0  0  0  2           0  0  0
   -5.4613    1.8433    5.8495 O   0  0  0  0  0  2           0  0  0
   -6.0220   -0.3178    6.3089 O   0  0  0  0  0  2           0  0  0
    1.6760   -2.9488    1.3002 O   0  0  0  0  0  2           0  0  0
    1.4519   -0.0000    0.0000 N   0  0  0  0  0  3           0  0  0
    3.5357    0.7699   -0.0300 N   0  0  0  0  0  3           0  0  0
    3.5498   -0.5999   -0.0532 C   0  0  0  0  0  4           0  0  0
   -1.6027    0.0027    4.0066 C   0  0  0  0  0  4           0  0  0
    2.2647    1.1169   -0.0000 C   0  0  0  0  0  4           0  0  0
    2.2666   -1.1149   -0.0368 C   0  0  0  0  0  4           0  0  0
   -4.3105    0.6407    7.5565 C   0  0  0  0  0  4           0  0  0
   -2.9347    0.7888    7.3031 C   0  0  0  0  0  4           0  0  0
   -0.5415    0.0000    1.3968 C   0  0  0  0  0  4           0  0  0
   -1.3234    1.2088    3.3593 C   0  0  0  0  0  4           0  0  0
   -1.3484   -1.2026    3.3454 C   0  0  0  0  0  4           0  0  0
   -4.7722    0.3524    8.8492 C   0  0  0  0  0  4           0  0  0
   -2.0420    0.6464    8.3786 C   0  0  0  0  0  4           0  0  0
   -0.7996    1.2048    2.0624 C   0  0  0  0  0  4           0  0  0
   -0.8243   -1.2049    2.0510 C   0  0  0  0  0  4           0  0  0
   -3.8668    0.2087    9.8987 C   0  0  0  0  0  4           0  0  0
   -2.5031    0.3552    9.6639 C   0  0  0  0  0  4           0  0  0
   -5.3074    0.8154    6.4868 C   0  0  0  0  0  4           0  0  0
   -2.3781    1.1047    5.9462 C   0  0  0  0  0  4           0  0  0
    1.7864   -2.5134   -0.0479 C   0  0  0  0  0  4           0  0  0
    0.0000   -0.0000    0.0000 C   0  0  0  0  0  4           0  0  0
    1.7718    2.5209    0.0303 C   0  0  0  0  0  4           0  0  0
    2.5015    3.4126   -0.9695 C   0  0  0  0  0  4           0  0  0
    2.0351    4.8691   -0.9821 C   0  0  0  0  0  4           0  0  0
    2.7862    5.7247   -1.9913 C   0  0  0  0  0  4           0  0  0
  1  8  1  0     0  0
  2  9  1  0     0  0
  2 24  1  0     0  0
  3 23  2  0     0  0
  4 23  1  0     0  0
  5 25  1  0     0  0
  6 10  1  0     0  0
  6 11  1  0     0  0
  6 26  1  0     0  0
  7  8  1  0     0  0
  7 10  2  0     0  0
  8 11  2  0     0  0
  9 15  2  0     0  0
  9 16  1  0     0  0
 10 27  1  0     0  0
 11 25  1  0     0  0
 12 13  1  0     0  0
 12 17  2  0     0  0
 12 23  1  0     0  0
 13 18  2  0     0  0
 13 24  1  0     0  0
 14 19  2  0     0  0
 14 20  1  0     0  0
 14 26  1  0     0  0
 15 19  1  0     0  0
 16 20  2  0     0  0
 17 21  1  0     0  0
 18 22  1  0     0  0
 21 22  2  0     0  0
 27 28  1  0     0  0
 28 29  1  0     0  0
 29 30  1  0     0  0
M  END
> <standard_type>
pIC50

> <# Confs.>
25

> <canonical_smiles>
ClC(N=C1CCCC)=C(CO)N1CC2=CC=C(OCC3=CC=CC=C3C(O)=O)C=C2

> <standard_relation>
=

> <Publication_ID>
nan

> <predicted_activity_value>
5.920818753952375

> <actual_activity_value>
6.036212172654444

> <Compound>
14

> <standard_units>
nM

> hash
17989980845622856130

$$$$
14_
XXILIB    08252103513D 0   0.00000     0.00000

 30 32  0     1  0            999 V2000
    5.0080   -1.4815   -0.1021 Cl  0  0  0  0  0  1           0  0  0
   -2.1174   -0.1214    5.2667 O   0  0  0  0  0  2           0  0  0
   -0.0537    1.6954    8.0003 O   0  0  0  0  0  2           0  0  0
   -0.0892   -0.4543    8.7575 O   0  0  0  0  0  2           0  0  0
    1.6760   -2.9488    1.3002 O   0  0  0  0  0  2           0  0  0
    1.4519   -0.0000    0.0000 N   0  0  0  0  0  3           0  0  0
    3.5357    0.7699   -0.0300 N   0  0  0  0  0  3           0  0  0
    3.5498   -0.5999   -0.0532 C   0  0  0  0  0  4           0  0  0
   -1.6027    0.0027    4.0066 C   0  0  0  0  0  4           0  0  0
    2.2647    1.1169   -0.0000 C   0  0  0  0  0  4           0  0  0
    2.2666   -1.1149   -0.0368 C   0  0  0  0  0  4           0  0  0
   -2.1309    0.6124    8.4440 C   0  0  0  0  0  4           0  0  0
   -2.9347    0.7888    7.3031 C   0  0  0  0  0  4           0  0  0
   -0.5415    0.0000    1.3968 C   0  0  0  0  0  4           0  0  0
   -1.3234    1.2088    3.3593 C   0  0  0  0  0  4           0  0  0
   -1.3484   -1.2026    3.3454 C   0  0  0  0  0  4           0  0  0
   -2.7089    0.3107    9.6858 C   0  0  0  0  0  4           0  0  0
   -4.3257    0.6484    7.4423 C   0  0  0  0  0  4           0  0  0
   -0.7996    1.2048    2.0624 C   0  0  0  0  0  4           0  0  0
   -0.8243   -1.2049    2.0510 C   0  0  0  0  0  4           0  0  0
   -4.0918    0.1833    9.8005 C   0  0  0  0  0  4           0  0  0
   -4.8996    0.3523    8.6801 C   0  0  0  0  0  4           0  0  0
   -0.6632    0.7048    8.3661 C   0  0  0  0  0  4           0  0  0
   -2.3781    1.1047    5.9462 C   0  0  0  0  0  4           0  0  0
    1.7864   -2.5134   -0.0479 C   0  0  0  0  0  4           0  0  0
    0.0000   -0.0000    0.0000 C   0  0  0  0  0  4           0  0  0
    1.7718    2.5209    0.0303 C   0  0  0  0  0  4           0  0  0
    2.5015    3.4126   -0.9695 C   0  0  0  0  0  4           0  0  0
    2.0351    4.8691   -0.9821 C   0  0  0  0  0  4           0  0  0
    2.7862    5.7247   -1.9913 C   0  0  0  0  0  4           0  0  0
  1  8  1  0     0  0
  2  9  1  0     0  0
  2 24  1  0     0  0
  3 23  2  0     0  0
  4 23  1  0     0  0
  5 25  1  0     0  0
  6 10  1  0     0  0
  6 11  1  0     0  0
  6 26  1  0     0  0
  7  8  1  0     0  0
  7 10  2  0     0  0
  8 11  2  0     0  0
  9 15  2  0     0  0
  9 16  1  0     0  0
 10 27  1  0     0  0
 11 25  1  0     0  0
 12 13  1  0     0  0
 12 17  2  0     0  0
 12 23  1  0     0  0
 13 18  2  0     0  0
 13 24  1  0     0  0
 14 19  2  0     0  0
 14 20  1  0     0  0
 14 26  1  0     0  0
 15 19  1  0     0  0
 16 20  2  0     0  0
 17 21  1  0     0  0
 18 22  1  0     0  0
 21 22  2  0     0  0
 27 28  1  0     0  0
 28 29  1  0     0  0
 29 30  1  0     0  0
M  END
> <standard_type>
pIC50

> <# Confs.>
25

> <canonical_smiles>
ClC(N=C1CCCC)=C(CO)N1CC2=CC=C(OCC3=CC=CC=C3C(O)=O)C=C2

> <standard_relation>
=

> <Publication_ID>
nan

> <predicted_activity_value>
5.920818753952375

> <actual_activity_value>
6.036212172654444

> <Compound>
14

> <standard_units>
nM

> hash
17989980845622856130

$$$$
14_
XXILIB    08252103513D 0   0.00000     0.00000

 30 32  0     1  0            999 V2000
    5.0080    1.4815    0.1021 Cl  0  0  0  0  0  1           0  0  0
   -2.0854    0.1357    5.2792 O   0  0  0  0  0  2           0  0  0
   -3.4593   -3.2083    6.6800 O   0  0  0  0  0  2           0  0  0
   -5.2950   -1.8583    6.7393 O   0  0  0  0  0  2           0  0  0
    1.6760    2.9488   -1.3002 O   0  0  0  0  0  2           0  0  0
    1.4519   -0.0000   -0.0000 N   0  0  0  0  0  3           0  0  0
    3.5357   -0.7699    0.0300 N   0  0  0  0  0  3           0  0  0
    3.5498    0.5999    0.0532 C   0  0  0  0  0  4           0  0  0
   -1.5277    0.0306    4.0357 C   0  0  0  0  0  4           0  0  0
    2.2647   -1.1169    0.0000 C   0  0  0  0  0  4           0  0  0
    2.2666    1.1149    0.0368 C   0  0  0  0  0  4           0  0  0
   -3.4230   -1.1864    7.9430 C   0  0  0  0  0  4           0  0  0
   -2.2612   -0.4896    7.5642 C   0  0  0  0  0  4           0  0  0
   -0.5415   -0.0000    1.3968 C   0  0  0  0  0  4           0  0  0
   -0.4952   -0.8408    3.6804 C   0  0  0  0  0  4           0  0  0
   -2.0649    0.8842    3.0676 C   0  0  0  0  0  4           0  0  0
   -4.0567   -0.9094    9.1633 C   0  0  0  0  0  4           0  0  0
   -1.7606    0.4911    8.4368 C   0  0  0  0  0  4           0  0  0
   -0.0052   -0.8519    2.3703 C   0  0  0  0  0  4           0  0  0
   -1.5754    0.8712    1.7598 C   0  0  0  0  0  4           0  0  0
   -3.5372    0.0631   10.0155 C   0  0  0  0  0  4           0  0  0
   -2.3902    0.7625    9.6530 C   0  0  0  0  0  4           0  0  0
   -4.0277   -2.1995    7.0617 C   0  0  0  0  0  4           0  0  0
   -1.5417   -0.7331    6.2705 C   0  0  0  0  0  4           0  0  0
    1.7864    2.5134    0.0479 C   0  0  0  0  0  4           0  0  0
   -0.0000    0.0000    0.0000 C   0  0  0  0  0  4           0  0  0
    1.7718   -2.5209   -0.0303 C   0  0  0  0  0  4           0  0  0
    2.5413   -3.3836   -1.0256 C   0  0  0  0  0  4           0  0  0
    2.4690   -2.9013   -2.4751 C   0  0  0  0  0  4           0  0  0
    3.2482   -3.7873   -3.4357 C   0  0  0  0  0  4           0  0  0
  1  8  1  0     0  0
  2  9  1  0     0  0
  2 24  1  0     0  0
  3 23  2  0     0  0
  4 23  1  0     0  0
  5 25  1  0     0  0
  6 10  1  0     0  0
  6 11  1  0     0  0
  6 26  1  0     0  0
  7  8  1  0     0  0
  7 10  2  0     0  0
  8 11  2  0     0  0
  9 15  2  0     0  0
  9 16  1  0     0  0
 10 27  1  0     0  0
 11 25  1  0     0  0
 12 13  1  0     0  0
 12 17  2  0     0  0
 12 23  1  0     0  0
 13 18  2  0     0  0
 13 24  1  0     0  0
 14 19  2  0     0  0
 14 20  1  0     0  0
 14 26  1  0     0  0
 15 19  1  0     0  0
 16 20  2  0     0  0
 17 21  1  0     0  0
 18 22  1  0     0  0
 21 22  2  0     0  0
 27 28  1  0     0  0
 28 29  1  0     0  0
 29 30  1  0     0  0
M  END
> <standard_type>
pIC50

> <# Confs.>
25

> <canonical_smiles>
ClC(N=C1CCCC)=C(CO)N1CC2=CC=C(OCC3=CC=CC=C3C(O)=O)C=C2

> <standard_relation>
=

> <Publication_ID>
nan

> <predicted_activity_value>
5.920818753952375

> <actual_activity_value>
6.036212172654444

> <Compound>
14

> <standard_units>
nM

> hash
17989980845622856130

$$$$
14_
XXILIB    08252103513D 0   0.00000     0.00000

 30 32  0     1  0            999 V2000
    5.0080    1.4815    0.1021 Cl  0  0  0  0  0  1           0  0  0
   -2.0854    0.1357    5.2792 O   0  0  0  0  0  2           0  0  0
   -3.4593   -3.2083    6.6800 O   0  0  0  0  0  2           0  0  0
   -5.2950   -1.8583    6.7393 O   0  0  0  0  0  2           0  0  0
    1.6760    2.9488   -1.3002 O   0  0  0  0  0  2           0  0  0
    1.4519    0.0000    0.0000 N   0  0  0  0  0  3           0  0  0
    3.5357   -0.7699    0.0300 N   0  0  0  0  0  3           0  0  0
    3.5498    0.5999    0.0532 C   0  0  0  0  0  4           0  0  0
   -1.5277    0.0306    4.0357 C   0  0  0  0  0  4           0  0  0
    2.2647   -1.1169    0.0000 C   0  0  0  0  0  4           0  0  0
    2.2666    1.1149    0.0368 C   0  0  0  0  0  4           0  0  0
   -3.4230   -1.1864    7.9430 C   0  0  0  0  0  4           0  0  0
   -2.2612   -0.4896    7.5642 C   0  0  0  0  0  4           0  0  0
   -0.5415   -0.0000    1.3968 C   0  0  0  0  0  4           0  0  0
   -0.4952   -0.8408    3.6804 C   0  0  0  0  0  4           0  0  0
   -2.0649    0.8842    3.0676 C   0  0  0  0  0  4           0  0  0
   -4.0567   -0.9094    9.1633 C   0  0  0  0  0  4           0  0  0
   -1.7606    0.4911    8.4368 C   0  0  0  0  0  4           0  0  0
   -0.0052   -0.8519    2.3703 C   0  0  0  0  0  4           0  0  0
   -1.5754    0.8712    1.7598 C   0  0  0  0  0  4           0  0  0
   -3.5372    0.0631   10.0155 C   0  0  0  0  0  4           0  0  0
   -2.3902    0.7625    9.6530 C   0  0  0  0  0  4           0  0  0
   -4.0277   -2.1995    7.0617 C   0  0  0  0  0  4           0  0  0
   -1.5417   -0.7331    6.2705 C   0  0  0  0  0  4           0  0  0
    1.7864    2.5134    0.0479 C   0  0  0  0  0  4           0  0  0
   -0.0000    0.0000    0.0000 C   0  0  0  0  0  4           0  0  0
    1.7718   -2.5209   -0.0303 C   0  0  0  0  0  4           0  0  0
    1.6082   -3.0468   -1.4529 C   0  0  0  0  0  4           0  0  0
    1.1034   -4.4875   -1.5448 C   0  0  0  0  0  4           0  0  0
    0.9537   -4.9743   -2.9785 C   0  0  0  0  0  4           0  0  0
  1  8  1  0     0  0
  2  9  1  0     0  0
  2 24  1  0     0  0
  3 23  2  0     0  0
  4 23  1  0     0  0
  5 25  1  0     0  0
  6 10  1  0     0  0
  6 11  1  0     0  0
  6 26  1  0     0  0
  7  8  1  0     0  0
  7 10  2  0     0  0
  8 11  2  0     0  0
  9 15  2  0     0  0
  9 16  1  0     0  0
 10 27  1  0     0  0
 11 25  1  0     0  0
 12 13  1  0     0  0
 12 17  2  0     0  0
 12 23  1  0     0  0
 13 18  2  0     0  0
 13 24  1  0     0  0
 14 19  2  0     0  0
 14 20  1  0     0  0
 14 26  1  0     0  0
 15 19  1  0     0  0
 16 20  2  0     0  0
 17 21  1  0     0  0
 18 22  1  0     0  0
 21 22  2  0     0  0
 27 28  1  0     0  0
 28 29  1  0     0  0
 29 30  1  0     0  0
M  END
> <standard_type>
pIC50

> <# Confs.>
25

> <canonical_smiles>
ClC(N=C1CCCC)=C(CO)N1CC2=CC=C(OCC3=CC=CC=C3C(O)=O)C=C2

> <standard_relation>
=

> <Publication_ID>
nan

> <predicted_activity_value>
5.920818753952375

> <actual_activity_value>
6.036212172654444

> <Compound>
14

> <standard_units>
nM

> hash
17989980845622856130

$$$$
14_
XXILIB    08252103513D 0   0.00000     0.00000

 30 32  0     1  0            999 V2000
    5.0080    1.4815    0.1021 Cl  0  0  0  0  0  1           0  0  0
   -2.0181   -0.1357    5.3052 O   0  0  0  0  0  2           0  0  0
   -1.9475    3.2083    7.2661 O   0  0  0  0  0  2           0  0  0
   -0.6315    1.8583    8.5473 O   0  0  0  0  0  2           0  0  0
    1.6760    2.9488   -1.3002 O   0  0  0  0  0  2           0  0  0
    1.4519   -0.0000   -0.0000 N   0  0  0  0  0  3           0  0  0
    3.5357   -0.7699    0.0300 N   0  0  0  0  0  3           0  0  0
    3.5498    0.5999    0.0532 C   0  0  0  0  0  4           0  0  0
   -1.5919   -0.0306    4.0108 C   0  0  0  0  0  4           0  0  0
    2.2647   -1.1169    0.0000 C   0  0  0  0  0  4           0  0  0
    2.2666    1.1149    0.0368 C   0  0  0  0  0  4           0  0  0
   -2.8256    1.1864    8.1746 C   0  0  0  0  0  4           0  0  0
   -3.4285    0.4896    7.1117 C   0  0  0  0  0  4           0  0  0
   -0.5415   -0.0000    1.3968 C   0  0  0  0  0  4           0  0  0
   -2.1150    0.8408    3.0524 C   0  0  0  0  0  4           0  0  0
   -0.5424   -0.8842    3.6579 C   0  0  0  0  0  4           0  0  0
   -3.1801    0.9094    9.5032 C   0  0  0  0  0  4           0  0  0
   -4.3864   -0.4911    7.4187 C   0  0  0  0  0  4           0  0  0
   -1.5939    0.8519    1.7544 C   0  0  0  0  0  4           0  0  0
   -0.0225   -0.8712    2.3618 C   0  0  0  0  0  4           0  0  0
   -4.1382   -0.0631    9.7825 C   0  0  0  0  0  4           0  0  0
   -4.7412   -0.7625    8.7416 C   0  0  0  0  0  4           0  0  0
   -1.7849    2.1995    7.9312 C   0  0  0  0  0  4           0  0  0
   -3.0879    0.7331    5.6711 C   0  0  0  0  0  4           0  0  0
    1.7864    2.5134    0.0479 C   0  0  0  0  0  4           0  0  0
    0.0000    0.0000    0.0000 C   0  0  0  0  0  4           0  0  0
    1.7718   -2.5209   -0.0303 C   0  0  0  0  0  4           0  0  0
    2.5413   -3.3836   -1.0256 C   0  0  0  0  0  4           0  0  0
    2.4690   -2.9013   -2.4751 C   0  0  0  0  0  4           0  0  0
    3.2482   -3.7873   -3.4357 C   0  0  0  0  0  4           0  0  0
  1  8  1  0     0  0
  2  9  1  0     0  0
  2 24  1  0     0  0
  3 23  2  0     0  0
  4 23  1  0     0  0
  5 25  1  0     0  0
  6 10  1  0     0  0
  6 11  1  0     0  0
  6 26  1  0     0  0
  7  8  1  0     0  0
  7 10  2  0     0  0
  8 11  2  0     0  0
  9 15  2  0     0  0
  9 16  1  0     0  0
 10 27  1  0     0  0
 11 25  1  0     0  0
 12 13  1  0     0  0
 12 17  2  0     0  0
 12 23  1  0     0  0
 13 18  2  0     0  0
 13 24  1  0     0  0
 14 19  2  0     0  0
 14 20  1  0     0  0
 14 26  1  0     0  0
 15 19  1  0     0  0
 16 20  2  0     0  0
 17 21  1  0     0  0
 18 22  1  0     0  0
 21 22  2  0     0  0
 27 28  1  0     0  0
 28 29  1  0     0  0
 29 30  1  0     0  0
M  END
> <standard_type>
pIC50

> <# Confs.>
25

> <canonical_smiles>
ClC(N=C1CCCC)=C(CO)N1CC2=CC=C(OCC3=CC=CC=C3C(O)=O)C=C2

> <standard_relation>
=

> <Publication_ID>
nan

> <predicted_activity_value>
5.920818753952375

> <actual_activity_value>
6.036212172654444

> <Compound>
14

> <standard_units>
nM

> hash
17989980845622856130

$$$$
14_
XXILIB    08252103513D 0   0.00000     0.00000

 30 32  0     1  0            999 V2000
    5.0080    1.4815    0.1021 Cl  0  0  0  0  0  1           0  0  0
   -2.0181   -0.1357    5.3052 O   0  0  0  0  0  2           0  0  0
   -1.9475    3.2083    7.2661 O   0  0  0  0  0  2           0  0  0
   -0.6315    1.8583    8.5473 O   0  0  0  0  0  2           0  0  0
    1.6760    2.9488   -1.3002 O   0  0  0  0  0  2           0  0  0
    1.4519    0.0000    0.0000 N   0  0  0  0  0  3           0  0  0
    3.5357   -0.7699    0.0300 N   0  0  0  0  0  3           0  0  0
    3.5498    0.5999    0.0532 C   0  0  0  0  0  4           0  0  0
   -1.5919   -0.0306    4.0108 C   0  0  0  0  0  4           0  0  0
    2.2647   -1.1169    0.0000 C   0  0  0  0  0  4           0  0  0
    2.2666    1.1149    0.0368 C   0  0  0  0  0  4           0  0  0
   -2.8256    1.1864    8.1746 C   0  0  0  0  0  4           0  0  0
   -3.4285    0.4896    7.1117 C   0  0  0  0  0  4           0  0  0
   -0.5415   -0.0000    1.3968 C   0  0  0  0  0  4           0  0  0
   -2.1150    0.8408    3.0524 C   0  0  0  0  0  4           0  0  0
   -0.5424   -0.8842    3.6579 C   0  0  0  0  0  4           0  0  0
   -3.1801    0.9094    9.5032 C   0  0  0  0  0  4           0  0  0
   -4.3864   -0.4911    7.4187 C   0  0  0  0  0  4           0  0  0
   -1.5939    0.8519    1.7544 C   0  0  0  0  0  4           0  0  0
   -0.0225   -0.8712    2.3618 C   0  0  0  0  0  4           0  0  0
   -4.1382   -0.0631    9.7825 C   0  0  0  0  0  4           0  0  0
   -4.7412   -0.7625    8.7416 C   0  0  0  0  0  4           0  0  0
   -1.7849    2.1995    7.9312 C   0  0  0  0  0  4           0  0  0
   -3.0879    0.7331    5.6711 C   0  0  0  0  0  4           0  0  0
    1.7864    2.5134    0.0479 C   0  0  0  0  0  4           0  0  0
    0.0000    0.0000    0.0000 C   0  0  0  0  0  4           0  0  0
    1.7718   -2.5209   -0.0303 C   0  0  0  0  0  4           0  0  0
    1.6082   -3.0468   -1.4529 C   0  0  0  0  0  4           0  0  0
    1.1034   -4.4875   -1.5448 C   0  0  0  0  0  4           0  0  0
    0.9537   -4.9743   -2.9785 C   0  0  0  0  0  4           0  0  0
  1  8  1  0     0  0
  2  9  1  0     0  0
  2 24  1  0     0  0
  3 23  2  0     0  0
  4 23  1  0     0  0
  5 25  1  0     0  0
  6 10  1  0     0  0
  6 11  1  0     0  0
  6 26  1  0     0  0
  7  8  1  0     0  0
  7 10  2  0     0  0
  8 11  2  0     0  0
  9 15  2  0     0  0
  9 16  1  0     0  0
 10 27  1  0     0  0
 11 25  1  0     0  0
 12 13  1  0     0  0
 12 17  2  0     0  0
 12 23  1  0     0  0
 13 18  2  0     0  0
 13 24  1  0     0  0
 14 19  2  0     0  0
 14 20  1  0     0  0
 14 26  1  0     0  0
 15 19  1  0     0  0
 16 20  2  0     0  0
 17 21  1  0     0  0
 18 22  1  0     0  0
 21 22  2  0     0  0
 27 28  1  0     0  0
 28 29  1  0     0  0
 29 30  1  0     0  0
M  END
> <standard_type>
pIC50

> <# Confs.>
25

> <canonical_smiles>
ClC(N=C1CCCC)=C(CO)N1CC2=CC=C(OCC3=CC=CC=C3C(O)=O)C=C2

> <standard_relation>
=

> <Publication_ID>
nan

> <predicted_activity_value>
5.920818753952375

> <actual_activity_value>
6.036212172654444

> <Compound>
14

> <standard_units>
nM

> hash
17989980845622856130

$$$$
14_
XXILIB    08252103513D 0   0.00000     0.00000

 30 32  0     1  0            999 V2000
    5.0080    1.4815    0.1021 Cl  0  0  0  0  0  1           0  0  0
   -2.0181   -0.1357    5.3052 O   0  0  0  0  0  2           0  0  0
   -5.8634   -0.8020    5.6936 O   0  0  0  0  0  2           0  0  0
   -4.9019   -2.5824    6.7431 O   0  0  0  0  0  2           0  0  0
    1.6760    2.9488   -1.3002 O   0  0  0  0  0  2           0  0  0
    1.4519   -0.0000   -0.0000 N   0  0  0  0  0  3           0  0  0
    3.5357   -0.7699    0.0300 N   0  0  0  0  0  3           0  0  0
    3.5498    0.5999    0.0532 C   0  0  0  0  0  4           0  0  0
   -1.5919   -0.0306    4.0108 C   0  0  0  0  0  4           0  0  0
    2.2647   -1.1169    0.0000 C   0  0  0  0  0  4           0  0  0
    2.2666    1.1149    0.0368 C   0  0  0  0  0  4           0  0  0
   -4.3813   -0.4574    7.5290 C   0  0  0  0  0  4           0  0  0
   -3.4285    0.4896    7.1117 C   0  0  0  0  0  4           0  0  0
   -0.5415   -0.0000    1.3968 C   0  0  0  0  0  4           0  0  0
   -2.1150    0.8408    3.0524 C   0  0  0  0  0  4           0  0  0
   -0.5424   -0.8842    3.6579 C   0  0  0  0  0  4           0  0  0
   -4.6629   -0.6353    8.8915 C   0  0  0  0  0  4           0  0  0
   -2.7753    1.2524    8.0943 C   0  0  0  0  0  4           0  0  0
   -1.5939    0.8519    1.7544 C   0  0  0  0  0  4           0  0  0
   -0.0225   -0.8712    2.3618 C   0  0  0  0  0  4           0  0  0
   -3.9970    0.1283    9.8482 C   0  0  0  0  0  4           0  0  0
   -3.0539    1.0710    9.4503 C   0  0  0  0  0  4           0  0  0
   -5.1339   -1.2645    6.5540 C   0  0  0  0  0  4           0  0  0
   -3.0879    0.7331    5.6711 C   0  0  0  0  0  4           0  0  0
    1.7864    2.5134    0.0479 C   0  0  0  0  0  4           0  0  0
    0.0000    0.0000    0.0000 C   0  0  0  0  0  4           0  0  0
    1.7718   -2.5209   -0.0303 C   0  0  0  0  0  4           0  0  0
    2.5413   -3.3836   -1.0256 C   0  0  0  0  0  4           0  0  0
    2.4690   -2.9013   -2.4751 C   0  0  0  0  0  4           0  0  0
    3.2482   -3.7873   -3.4357 C   0  0  0  0  0  4           0  0  0
  1  8  1  0     0  0
  2  9  1  0     0  0
  2 24  1  0     0  0
  3 23  2  0     0  0
  4 23  1  0     0  0
  5 25  1  0     0  0
  6 10  1  0     0  0
  6 11  1  0     0  0
  6 26  1  0     0  0
  7  8  1  0     0  0
  7 10  2  0     0  0
  8 11  2  0     0  0
  9 15  2  0     0  0
  9 16  1  0     0  0
 10 27  1  0     0  0
 11 25  1  0     0  0
 12 13  1  0     0  0
 12 17  2  0     0  0
 12 23  1  0     0  0
 13 18  2  0     0  0
 13 24  1  0     0  0
 14 19  2  0     0  0
 14 20  1  0     0  0
 14 26  1  0     0  0
 15 19  1  0     0  0
 16 20  2  0     0  0
 17 21  1  0     0  0
 18 22  1  0     0  0
 21 22  2  0     0  0
 27 28  1  0     0  0
 28 29  1  0     0  0
 29 30  1  0     0  0
M  END
> <standard_type>
pIC50

> <# Confs.>
25

> <canonical_smiles>
ClC(N=C1CCCC)=C(CO)N1CC2=CC=C(OCC3=CC=CC=C3C(O)=O)C=C2

> <standard_relation>
=

> <Publication_ID>
nan

> <predicted_activity_value>
5.920818753952375

> <actual_activity_value>
6.036212172654444

> <Compound>
14

> <standard_units>
nM

> hash
17989980845622856130

$$$$
14_
XXILIB    08252103513D 0   0.00000     0.00000

 30 32  0     1  0            999 V2000
    5.0080   -1.4815   -0.1021 Cl  0  0  0  0  0  1           0  0  0
   -1.9861    0.1214    5.3177 O   0  0  0  0  0  2           0  0  0
   -4.9707   -0.4158    5.4559 O   0  0  0  0  0  2           0  0  0
   -6.3147   -1.1553    7.1419 O   0  0  0  0  0  2           0  0  0
    1.6760   -2.9488    1.3002 O   0  0  0  0  0  2           0  0  0
    1.4519   -0.0000    0.0000 N   0  0  0  0  0  3           0  0  0
    3.5357    0.7699   -0.0300 N   0  0  0  0  0  3           0  0  0
    3.5498   -0.5999   -0.0532 C   0  0  0  0  0  4           0  0  0
   -1.5169   -0.0027    4.0399 C   0  0  0  0  0  4           0  0  0
    2.2647    1.1169   -0.0000 C   0  0  0  0  0  4           0  0  0
    2.2666   -1.1149   -0.0368 C   0  0  0  0  0  4           0  0  0
   -4.1177   -0.6124    7.6737 C   0  0  0  0  0  4           0  0  0
   -2.7550   -0.7888    7.3728 C   0  0  0  0  0  4           0  0  0
   -0.5415    0.0000    1.3968 C   0  0  0  0  0  4           0  0  0
   -1.2868   -1.2088    3.3735 C   0  0  0  0  0  4           0  0  0
   -1.2590    1.2026    3.3800 C   0  0  0  0  0  4           0  0  0
   -4.5279   -0.3107    8.9806 C   0  0  0  0  0  4           0  0  0
   -1.8213   -0.6484    8.4132 C   0  0  0  0  0  4           0  0  0
   -0.7996   -1.2048    2.0624 C   0  0  0  0  0  4           0  0  0
   -0.7736    1.2049    2.0706 C   0  0  0  0  0  4           0  0  0
   -3.5837   -0.1833    9.9975 C   0  0  0  0  0  4           0  0  0
   -2.2317   -0.3523    9.7144 C   0  0  0  0  0  4           0  0  0
   -5.1494   -0.7048    6.6269 C   0  0  0  0  0  4           0  0  0
   -2.2515   -1.1047    5.9953 C   0  0  0  0  0  4           0  0  0
    1.7864   -2.5134   -0.0479 C   0  0  0  0  0  4           0  0  0
    0.0000    0.0000    0.0000 C   0  0  0  0  0  4           0  0  0
    1.7718    2.5209    0.0303 C   0  0  0  0  0  4           0  0  0
    2.5015    3.4126   -0.9695 C   0  0  0  0  0  4           0  0  0
    2.3709    2.9726   -2.4284 C   0  0  0  0  0  4           0  0  0
    0.9290    2.9425   -2.9132 C   0  0  0  0  0  4           0  0  0
  1  8  1  0     0  0
  2  9  1  0     0  0
  2 24  1  0     0  0
  3 23  2  0     0  0
  4 23  1  0     0  0
  5 25  1  0     0  0
  6 10  1  0     0  0
  6 11  1  0     0  0
  6 26  1  0     0  0
  7  8  1  0     0  0
  7 10  2  0     0  0
  8 11  2  0     0  0
  9 15  2  0     0  0
  9 16  1  0     0  0
 10 27  1  0     0  0
 11 25  1  0     0  0
 12 13  1  0     0  0
 12 17  2  0     0  0
 12 23  1  0     0  0
 13 18  2  0     0  0
 13 24  1  0     0  0
 14 19  2  0     0  0
 14 20  1  0     0  0
 14 26  1  0     0  0
 15 19  1  0     0  0
 16 20  2  0     0  0
 17 21  1  0     0  0
 18 22  1  0     0  0
 21 22  2  0     0  0
 27 28  1  0     0  0
 28 29  1  0     0  0
 29 30  1  0     0  0
M  END
> <standard_type>
pIC50

> <# Confs.>
25

> <canonical_smiles>
ClC(N=C1CCCC)=C(CO)N1CC2=CC=C(OCC3=CC=CC=C3C(O)=O)C=C2

> <standard_relation>
=

> <Publication_ID>
nan

> <predicted_activity_value>
5.920818753952375

> <actual_activity_value>
6.036212172654444

> <Compound>
14

> <standard_units>
nM

> hash
17989980845622856130

$$$$
14_
XXILIB    08252103513D 0   0.00000     0.00000

 30 32  0     1  0            999 V2000
    5.0080    1.4815    0.1021 Cl  0  0  0  0  0  1           0  0  0
   -2.0854    0.1357    5.2792 O   0  0  0  0  0  2           0  0  0
   -3.4593   -3.2083    6.6800 O   0  0  0  0  0  2           0  0  0
   -5.2950   -1.8583    6.7393 O   0  0  0  0  0  2           0  0  0
    1.6760    2.9488   -1.3002 O   0  0  0  0  0  2           0  0  0
    1.4519   -0.0000   -0.0000 N   0  0  0  0  0  3           0  0  0
    3.5357   -0.7699    0.0300 N   0  0  0  0  0  3           0  0  0
    3.5498    0.5999    0.0532 C   0  0  0  0  0  4           0  0  0
   -1.5277    0.0306    4.0357 C   0  0  0  0  0  4           0  0  0
    2.2647   -1.1169    0.0000 C   0  0  0  0  0  4           0  0  0
    2.2666    1.1149    0.0368 C   0  0  0  0  0  4           0  0  0
   -3.4230   -1.1864    7.9430 C   0  0  0  0  0  4           0  0  0
   -2.2612   -0.4896    7.5642 C   0  0  0  0  0  4           0  0  0
   -0.5415   -0.0000    1.3968 C   0  0  0  0  0  4           0  0  0
   -0.4952   -0.8408    3.6804 C   0  0  0  0  0  4           0  0  0
   -2.0649    0.8842    3.0676 C   0  0  0  0  0  4           0  0  0
   -4.0567   -0.9094    9.1633 C   0  0  0  0  0  4           0  0  0
   -1.7606    0.4911    8.4368 C   0  0  0  0  0  4           0  0  0
   -0.0052   -0.8519    2.3703 C   0  0  0  0  0  4           0  0  0
   -1.5754    0.8712    1.7598 C   0  0  0  0  0  4           0  0  0
   -3.5372    0.0631   10.0155 C   0  0  0  0  0  4           0  0  0
   -2.3902    0.7625    9.6530 C   0  0  0  0  0  4           0  0  0
   -4.0277   -2.1995    7.0617 C   0  0  0  0  0  4           0  0  0
   -1.5417   -0.7331    6.2705 C   0  0  0  0  0  4           0  0  0
    1.7864    2.5134    0.0479 C   0  0  0  0  0  4           0  0  0
   -0.0000    0.0000    0.0000 C   0  0  0  0  0  4           0  0  0
    1.7718   -2.5209   -0.0303 C   0  0  0  0  0  4           0  0  0
    2.5015   -3.4126    0.9695 C   0  0  0  0  0  4           0  0  0
    2.0351   -4.8691    0.9821 C   0  0  0  0  0  4           0  0  0
    2.7862   -5.7247    1.9913 C   0  0  0  0  0  4           0  0  0
  1  8  1  0     0  0
  2  9  1  0     0  0
  2 24  1  0     0  0
  3 23  2  0     0  0
  4 23  1  0     0  0
  5 25  1  0     0  0
  6 10  1  0     0  0
  6 11  1  0     0  0
  6 26  1  0     0  0
  7  8  1  0     0  0
  7 10  2  0     0  0
  8 11  2  0     0  0
  9 15  2  0     0  0
  9 16  1  0     0  0
 10 27  1  0     0  0
 11 25  1  0     0  0
 12 13  1  0     0  0
 12 17  2  0     0  0
 12 23  1  0     0  0
 13 18  2  0     0  0
 13 24  1  0     0  0
 14 19  2  0     0  0
 14 20  1  0     0  0
 14 26  1  0     0  0
 15 19  1  0     0  0
 16 20  2  0     0  0
 17 21  1  0     0  0
 18 22  1  0     0  0
 21 22  2  0     0  0
 27 28  1  0     0  0
 28 29  1  0     0  0
 29 30  1  0     0  0
M  END
> <standard_type>
pIC50

> <# Confs.>
25

> <canonical_smiles>
ClC(N=C1CCCC)=C(CO)N1CC2=CC=C(OCC3=CC=CC=C3C(O)=O)C=C2

> <standard_relation>
=

> <Publication_ID>
nan

> <predicted_activity_value>
5.920818753952375

> <actual_activity_value>
6.036212172654444

> <Compound>
14

> <standard_units>
nM

> hash
17989980845622856130

$$$$
14_
XXILIB    08252103513D 0   0.00000     0.00000

 30 32  0     1  0            999 V2000
    5.0080    1.4815    0.1021 Cl  0  0  0  0  0  1           0  0  0
   -2.0854    0.1357    5.2792 O   0  0  0  0  0  2           0  0  0
    0.4933    0.8020    8.1580 O   0  0  0  0  0  2           0  0  0
   -0.9243    2.5824    8.2852 O   0  0  0  0  0  2           0  0  0
    1.6760    2.9488   -1.3002 O   0  0  0  0  0  2           0  0  0
    1.4519   -0.0000   -0.0000 N   0  0  0  0  0  3           0  0  0
    3.5357   -0.7699    0.0300 N   0  0  0  0  0  3           0  0  0
    3.5498    0.5999    0.0532 C   0  0  0  0  0  4           0  0  0
   -1.5277    0.0306    4.0357 C   0  0  0  0  0  4           0  0  0
    2.2647   -1.1169    0.0000 C   0  0  0  0  0  4           0  0  0
    2.2666    1.1149    0.0368 C   0  0  0  0  0  4           0  0  0
   -1.8387    0.4574    8.5147 C   0  0  0  0  0  4           0  0  0
   -2.2612   -0.4896    7.5642 C   0  0  0  0  0  4           0  0  0
   -0.5415   -0.0000    1.3968 C   0  0  0  0  0  4           0  0  0
   -0.4952   -0.8408    3.6804 C   0  0  0  0  0  4           0  0  0
   -2.0649    0.8842    3.0676 C   0  0  0  0  0  4           0  0  0
   -2.5491    0.6353    9.7110 C   0  0  0  0  0  4           0  0  0
   -3.4060   -1.2524    7.8498 C   0  0  0  0  0  4           0  0  0
   -0.0052   -0.8519    2.3703 C   0  0  0  0  0  4           0  0  0
   -1.5754    0.8712    1.7598 C   0  0  0  0  0  4           0  0  0
   -3.6859   -0.1283    9.9688 C   0  0  0  0  0  4           0  0  0
   -4.1143   -1.0710    9.0392 C   0  0  0  0  0  4           0  0  0
   -0.6255    1.2645    8.3019 C   0  0  0  0  0  4           0  0  0
   -1.5417   -0.7331    6.2705 C   0  0  0  0  0  4           0  0  0
    1.7864    2.5134    0.0479 C   0  0  0  0  0  4           0  0  0
   -0.0000    0.0000    0.0000 C   0  0  0  0  0  4           0  0  0
    1.7718   -2.5209   -0.0303 C   0  0  0  0  0  4           0  0  0
    2.5413   -3.3836   -1.0256 C   0  0  0  0  0  4           0  0  0
    2.4690   -2.9013   -2.4751 C   0  0  0  0  0  4           0  0  0
    3.2482   -3.7873   -3.4357 C   0  0  0  0  0  4           0  0  0
  1  8  1  0     0  0
  2  9  1  0     0  0
  2 24  1  0     0  0
  3 23  2  0     0  0
  4 23  1  0     0  0
  5 25  1  0     0  0
  6 10  1  0     0  0
  6 11  1  0     0  0
  6 26  1  0     0  0
  7  8  1  0     0  0
  7 10  2  0     0  0
  8 11  2  0     0  0
  9 15  2  0     0  0
  9 16  1  0     0  0
 10 27  1  0     0  0
 11 25  1  0     0  0
 12 13  1  0     0  0
 12 17  2  0     0  0
 12 23  1  0     0  0
 13 18  2  0     0  0
 13 24  1  0     0  0
 14 19  2  0     0  0
 14 20  1  0     0  0
 14 26  1  0     0  0
 15 19  1  0     0  0
 16 20  2  0     0  0
 17 21  1  0     0  0
 18 22  1  0     0  0
 21 22  2  0     0  0
 27 28  1  0     0  0
 28 29  1  0     0  0
 29 30  1  0     0  0
M  END
> <standard_type>
pIC50

> <# Confs.>
25

> <canonical_smiles>
ClC(N=C1CCCC)=C(CO)N1CC2=CC=C(OCC3=CC=CC=C3C(O)=O)C=C2

> <standard_relation>
=

> <Publication_ID>
nan

> <predicted_activity_value>
5.920818753952375

> <actual_activity_value>
6.036212172654444

> <Compound>
14

> <standard_units>
nM

> hash
17989980845622856130

$$$$
14_
XXILIB    08252103513D 0   0.00000     0.00000

 30 32  0     1  0            999 V2000
    5.0080    1.4815    0.1021 Cl  0  0  0  0  0  1           0  0  0
   -2.0854    0.1357    5.2792 O   0  0  0  0  0  2           0  0  0
    0.4933    0.8020    8.1580 O   0  0  0  0  0  2           0  0  0
   -0.9243    2.5824    8.2852 O   0  0  0  0  0  2           0  0  0
    1.6760    2.9488   -1.3002 O   0  0  0  0  0  2           0  0  0
    1.4519    0.0000    0.0000 N   0  0  0  0  0  3           0  0  0
    3.5357   -0.7699    0.0300 N   0  0  0  0  0  3           0  0  0
    3.5498    0.5999    0.0532 C   0  0  0  0  0  4           0  0  0
   -1.5277    0.0306    4.0357 C   0  0  0  0  0  4           0  0  0
    2.2647   -1.1169    0.0000 C   0  0  0  0  0  4           0  0  0
    2.2666    1.1149    0.0368 C   0  0  0  0  0  4           0  0  0
   -1.8387    0.4574    8.5147 C   0  0  0  0  0  4           0  0  0
   -2.2612   -0.4896    7.5642 C   0  0  0  0  0  4           0  0  0
   -0.5415   -0.0000    1.3968 C   0  0  0  0  0  4           0  0  0
   -0.4952   -0.8408    3.6804 C   0  0  0  0  0  4           0  0  0
   -2.0649    0.8842    3.0676 C   0  0  0  0  0  4           0  0  0
   -2.5491    0.6353    9.7110 C   0  0  0  0  0  4           0  0  0
   -3.4060   -1.2524    7.8498 C   0  0  0  0  0  4           0  0  0
   -0.0052   -0.8519    2.3703 C   0  0  0  0  0  4           0  0  0
   -1.5754    0.8712    1.7598 C   0  0  0  0  0  4           0  0  0
   -3.6859   -0.1283    9.9688 C   0  0  0  0  0  4           0  0  0
   -4.1143   -1.0710    9.0392 C   0  0  0  0  0  4           0  0  0
   -0.6255    1.2645    8.3019 C   0  0  0  0  0  4           0  0  0
   -1.5417   -0.7331    6.2705 C   0  0  0  0  0  4           0  0  0
    1.7864    2.5134    0.0479 C   0  0  0  0  0  4           0  0  0
   -0.0000    0.0000    0.0000 C   0  0  0  0  0  4           0  0  0
    1.7718   -2.5209   -0.0303 C   0  0  0  0  0  4           0  0  0
    1.6082   -3.0468   -1.4529 C   0  0  0  0  0  4           0  0  0
    1.1034   -4.4875   -1.5448 C   0  0  0  0  0  4           0  0  0
    0.9537   -4.9743   -2.9785 C   0  0  0  0  0  4           0  0  0
  1  8  1  0     0  0
  2  9  1  0     0  0
  2 24  1  0     0  0
  3 23  2  0     0  0
  4 23  1  0     0  0
  5 25  1  0     0  0
  6 10  1  0     0  0
  6 11  1  0     0  0
  6 26  1  0     0  0
  7  8  1  0     0  0
  7 10  2  0     0  0
  8 11  2  0     0  0
  9 15  2  0     0  0
  9 16  1  0     0  0
 10 27  1  0     0  0
 11 25  1  0     0  0
 12 13  1  0     0  0
 12 17  2  0     0  0
 12 23  1  0     0  0
 13 18  2  0     0  0
 13 24  1  0     0  0
 14 19  2  0     0  0
 14 20  1  0     0  0
 14 26  1  0     0  0
 15 19  1  0     0  0
 16 20  2  0     0  0
 17 21  1  0     0  0
 18 22  1  0     0  0
 21 22  2  0     0  0
 27 28  1  0     0  0
 28 29  1  0     0  0
 29 30  1  0     0  0
M  END
> <standard_type>
pIC50

> <# Confs.>
25

> <canonical_smiles>
ClC(N=C1CCCC)=C(CO)N1CC2=CC=C(OCC3=CC=CC=C3C(O)=O)C=C2

> <standard_relation>
=

> <Publication_ID>
nan

> <predicted_activity_value>
5.920818753952375

> <actual_activity_value>
6.036212172654444

> <Compound>
14

> <standard_units>
nM

> hash
17989980845622856130

$$$$
17_
XXILIB    08252103513D 0   0.00000     0.00000

 34 36  0     1  0            999 V2000
    3.3007   -1.4761    4.6752 Cl  0  0  0  0  0  1           0  0  0
   -9.8586   -0.0406   -1.8012 O   0  0  0  0  0  2           0  0  0
   -4.8662    0.0949   -2.1788 O   0  0  0  0  0  2           0  0  0
    3.3921   -2.8894    1.0374 O   0  0  0  0  0  2           0  0  0
   -9.8567   -0.6204   -4.0041 O   0  0  0  0  0  2           0  0  0
    2.0229    0.0000    1.3517 N   0  0  0  0  0  3           0  0  0
    2.7702    0.7729    3.2963 N   0  0  0  0  0  3           0  0  0
   -4.2221    0.0472    0.0543 N   0  0  0  0  0  3           0  0  0
    2.7814   -0.5972    3.3094 C   0  0  0  0  0  4           0  0  0
    2.3165    1.1181    2.1082 C   0  0  0  0  0  4           0  0  0
    2.3291   -1.1136    2.1092 C   0  0  0  0  0  4           0  0  0
   -2.8151    0.0346   -0.0004 C   0  0  0  0  0  4           0  0  0
   -7.8152   -1.9873   -1.3370 C   0  0  0  0  0  4           0  0  0
   -7.1242   -1.3154   -0.3043 C   0  0  0  0  0  4           0  0  0
    0.0000    0.0000    0.0000 C   0  0  0  0  0  4           0  0  0
   -2.1086    0.0153    1.2063 C   0  0  0  0  0  4           0  0  0
   -2.1114    0.0406   -1.2090 C   0  0  0  0  0  4           0  0  0
   -8.2740   -3.2989   -1.1109 C   0  0  0  0  0  4           0  0  0
   -6.9231   -1.9748    0.9228 C   0  0  0  0  0  4           0  0  0
   -0.7119    0.0000    1.2059 C   0  0  0  0  0  4           0  0  0
   -0.7134    0.0252   -1.2060 C   0  0  0  0  0  4           0  0  0
   -8.0697   -3.9330    0.1135 C   0  0  0  0  0  4           0  0  0
   -7.3959   -3.2698    1.1316 C   0  0  0  0  0  4           0  0  0
   -9.3429   -0.6165   -2.7488 C   0  0  0  0  0  4           0  0  0
   -5.1435    0.0667   -0.9817 C   0  0  0  0  0  4           0  0  0
    2.1677   -2.5140    1.6566 C   0  0  0  0  0  4           0  0  0
    3.3490   -4.2282    0.5610 C   0  0  0  0  0  4           0  0  0
    1.4983    0.0000    0.0000 C   0  0  0  0  0  4           0  0  0
    2.1356    2.5200    1.6472 C   0  0  0  0  0  4           0  0  0
   -8.0549   -1.3820   -2.6882 C   0  0  0  0  0  4           0  0  0
   -6.5655    0.0745   -0.4625 C   0  0  0  0  0  4           0  0  0
    3.3795    3.0691    0.9550 C   0  0  0  0  0  4           0  0  0
    3.1669    4.5074    0.4926 C   0  0  0  0  0  4           0  0  0
    4.4041    5.0589   -0.1980 C   0  0  0  0  0  4           0  0  0
  1  9  1  0     0  0
  2 24  2  0     0  0
  3 25  2  0     0  0
  4 26  1  0     0  0
  4 27  1  0     0  0
  5 24  1  0     0  0
  6 10  1  0     0  0
  6 11  1  0     0  0
  6 28  1  0     0  0
  7  9  1  0     0  0
  7 10  2  0     0  0
  8 12  1  0     0  0
  8 25  1  0     0  0
  9 11  2  0     0  0
 10 29  1  0     0  0
 11 26  1  0     0  0
 12 16  2  0     0  0
 12 17  1  0     0  0
 13 14  1  0     0  0
 13 18  2  0     0  0
 13 30  1  0     0  0
 14 19  2  0     0  0
 14 31  1  0     0  0
 15 20  2  0     0  0
 15 21  1  0     0  0
 15 28  1  0     0  0
 16 20  1  0     0  0
 17 21  2  0     0  0
 18 22  1  0     0  0
 19 23  1  0     0  0
 22 23  2  0     0  0
 24 30  1  0     0  0
 25 31  1  0     0  0
 29 32  1  0     0  0
 32 33  1  0     0  0
 33 34  1  0     0  0
M  END
> <standard_type>
pIC50

> <# Confs.>
25

> <canonical_smiles>
O=C(CC1=CC=CC=C1CC(O)=O)NC2=CC=C(CN3C(COC)=C(Cl)N=C3CCCC)C=C2

> <standard_relation>
=

> <Publication_ID>
nan

> <predicted_activity_value>
5.1487416512809245

> <actual_activity_value>
5.552841968657781

> <Compound>
17

> <standard_units>
nM

> hash
15369469530252257554

$$$$
17_
XXILIB    08252103513D 0   0.00000     0.00000

 34 36  0     1  0            999 V2000
    3.3217    1.4761    4.6670 Cl  0  0  0  0  0  1           0  0  0
   -9.8586   -0.0406   -1.8012 O   0  0  0  0  0  2           0  0  0
   -4.8662    0.0949   -2.1788 O   0  0  0  0  0  2           0  0  0
    3.3401    2.9158    1.0597 O   0  0  0  0  0  2           0  0  0
   -9.8567   -0.6204   -4.0041 O   0  0  0  0  0  2           0  0  0
    2.0229    0.0000    1.3517 N   0  0  0  0  0  3           0  0  0
    2.7831   -0.7729    3.2912 N   0  0  0  0  0  3           0  0  0
   -4.2221    0.0472    0.0543 N   0  0  0  0  0  3           0  0  0
    2.7837    0.5972    3.3086 C   0  0  0  0  0  4           0  0  0
    2.3165   -1.1181    2.1082 C   0  0  0  0  0  4           0  0  0
    2.3079    1.1136    2.1174 C   0  0  0  0  0  4           0  0  0
   -2.8151    0.0346   -0.0004 C   0  0  0  0  0  4           0  0  0
   -7.8152   -1.9873   -1.3370 C   0  0  0  0  0  4           0  0  0
   -7.1242   -1.3154   -0.3043 C   0  0  0  0  0  4           0  0  0
    0.0000    0.0000    0.0000 C   0  0  0  0  0  4           0  0  0
   -2.1086    0.0153    1.2063 C   0  0  0  0  0  4           0  0  0
   -2.1114    0.0406   -1.2090 C   0  0  0  0  0  4           0  0  0
   -8.2740   -3.2989   -1.1109 C   0  0  0  0  0  4           0  0  0
   -6.9231   -1.9748    0.9228 C   0  0  0  0  0  4           0  0  0
   -0.7119    0.0000    1.2059 C   0  0  0  0  0  4           0  0  0
   -0.7134    0.0252   -1.2060 C   0  0  0  0  0  4           0  0  0
   -8.0697   -3.9330    0.1135 C   0  0  0  0  0  4           0  0  0
   -7.3959   -3.2698    1.1316 C   0  0  0  0  0  4           0  0  0
   -9.3429   -0.6165   -2.7488 C   0  0  0  0  0  4           0  0  0
   -5.1435    0.0667   -0.9817 C   0  0  0  0  0  4           0  0  0
    2.1218    2.5140    1.6744 C   0  0  0  0  0  4           0  0  0
    3.2734    4.2569    0.5927 C   0  0  0  0  0  4           0  0  0
    1.4983    0.0000    0.0000 C   0  0  0  0  0  4           0  0  0
    2.1391   -2.5200    1.6459 C   0  0  0  0  0  4           0  0  0
   -8.0549   -1.3820   -2.6882 C   0  0  0  0  0  4           0  0  0
   -6.5655    0.0745   -0.4625 C   0  0  0  0  0  4           0  0  0
    3.3856   -3.0666    0.9564 C   0  0  0  0  0  4           0  0  0
    3.1765   -4.5049    0.4925 C   0  0  0  0  0  4           0  0  0
    4.4163   -5.0539   -0.1954 C   0  0  0  0  0  4           0  0  0
  1  9  1  0     0  0
  2 24  2  0     0  0
  3 25  2  0     0  0
  4 26  1  0     0  0
  4 27  1  0     0  0
  5 24  1  0     0  0
  6 10  1  0     0  0
  6 11  1  0     0  0
  6 28  1  0     0  0
  7  9  1  0     0  0
  7 10  2  0     0  0
  8 12  1  0     0  0
  8 25  1  0     0  0
  9 11  2  0     0  0
 10 29  1  0     0  0
 11 26  1  0     0  0
 12 16  2  0     0  0
 12 17  1  0     0  0
 13 14  1  0     0  0
 13 18  2  0     0  0
 13 30  1  0     0  0
 14 19  2  0     0  0
 14 31  1  0     0  0
 15 20  2  0     0  0
 15 21  1  0     0  0
 15 28  1  0     0  0
 16 20  1  0     0  0
 17 21  2  0     0  0
 18 22  1  0     0  0
 19 23  1  0     0  0
 22 23  2  0     0  0
 24 30  1  0     0  0
 25 31  1  0     0  0
 29 32  1  0     0  0
 32 33  1  0     0  0
 33 34  1  0     0  0
M  END
> <standard_type>
pIC50

> <# Confs.>
25

> <canonical_smiles>
O=C(CC1=CC=CC=C1CC(O)=O)NC2=CC=C(CN3C(COC)=C(Cl)N=C3CCCC)C=C2

> <standard_relation>
=

> <Publication_ID>
nan

> <predicted_activity_value>
5.1487416512809245

> <actual_activity_value>
5.552841968657781

> <Compound>
17

> <standard_units>
nM

> hash
15369469530252257554

$$$$
17_
XXILIB    08252103513D 0   0.00000     0.00000

 34 36  0     1  0            999 V2000
    3.3217    1.4761    4.6670 Cl  0  0  0  0  0  1           0  0  0
   -9.8603    0.3694   -1.7804 O   0  0  0  0  0  2           0  0  0
   -4.8662    0.0949   -2.1788 O   0  0  0  0  0  2           0  0  0
    3.3401    2.9158    1.0597 O   0  0  0  0  0  2           0  0  0
   -9.8672    1.1069   -3.9357 O   0  0  0  0  0  2           0  0  0
    2.0229    0.0000    1.3517 N   0  0  0  0  0  3           0  0  0
    2.7831   -0.7729    3.2912 N   0  0  0  0  0  3           0  0  0
   -4.2221    0.0472    0.0543 N   0  0  0  0  0  3           0  0  0
    2.7837    0.5972    3.3086 C   0  0  0  0  0  4           0  0  0
    2.3165   -1.1181    2.1082 C   0  0  0  0  0  4           0  0  0
    2.3079    1.1136    2.1174 C   0  0  0  0  0  4           0  0  0
   -2.8151    0.0346   -0.0004 C   0  0  0  0  0  4           0  0  0
   -7.7504    2.2182   -1.2226 C   0  0  0  0  0  4           0  0  0
   -7.0812    1.4702   -0.2285 C   0  0  0  0  0  4           0  0  0
    0.0000    0.0000    0.0000 C   0  0  0  0  0  4           0  0  0
   -2.1086    0.0153    1.2063 C   0  0  0  0  0  4           0  0  0
   -2.1114    0.0406   -1.2090 C   0  0  0  0  0  4           0  0  0
   -8.2280    3.5037   -0.9044 C   0  0  0  0  0  4           0  0  0
   -6.9047    2.0367    1.0478 C   0  0  0  0  0  4           0  0  0
   -0.7119    0.0000    1.2059 C   0  0  0  0  0  4           0  0  0
   -0.7134    0.0252   -1.2060 C   0  0  0  0  0  4           0  0  0
   -8.0385    4.0495    0.3641 C   0  0  0  0  0  4           0  0  0
   -7.3745    3.3165    1.3399 C   0  0  0  0  0  4           0  0  0
   -9.3265    0.9758   -2.6985 C   0  0  0  0  0  4           0  0  0
   -5.1435    0.0667   -0.9817 C   0  0  0  0  0  4           0  0  0
    2.1218    2.5140    1.6744 C   0  0  0  0  0  4           0  0  0
    3.2734    4.2569    0.5927 C   0  0  0  0  0  4           0  0  0
    1.4983    0.0000    0.0000 C   0  0  0  0  0  4           0  0  0
    2.1391   -2.5200    1.6459 C   0  0  0  0  0  4           0  0  0
   -8.0129    1.6925   -2.6027 C   0  0  0  0  0  4           0  0  0
   -6.5655    0.0745   -0.4625 C   0  0  0  0  0  4           0  0  0
    3.3856   -3.0666    0.9564 C   0  0  0  0  0  4           0  0  0
    3.1765   -4.5049    0.4925 C   0  0  0  0  0  4           0  0  0
    4.4163   -5.0539   -0.1954 C   0  0  0  0  0  4           0  0  0
  1  9  1  0     0  0
  2 24  2  0     0  0
  3 25  2  0     0  0
  4 26  1  0     0  0
  4 27  1  0     0  0
  5 24  1  0     0  0
  6 10  1  0     0  0
  6 11  1  0     0  0
  6 28  1  0     0  0
  7  9  1  0     0  0
  7 10  2  0     0  0
  8 12  1  0     0  0
  8 25  1  0     0  0
  9 11  2  0     0  0
 10 29  1  0     0  0
 11 26  1  0     0  0
 12 16  2  0     0  0
 12 17  1  0     0  0
 13 14  1  0     0  0
 13 18  2  0     0  0
 13 30  1  0     0  0
 14 19  2  0     0  0
 14 31  1  0     0  0
 15 20  2  0     0  0
 15 21  1  0     0  0
 15 28  1  0     0  0
 16 20  1  0     0  0
 17 21  2  0     0  0
 18 22  1  0     0  0
 19 23  1  0     0  0
 22 23  2  0     0  0
 24 30  1  0     0  0
 25 31  1  0     0  0
 29 32  1  0     0  0
 32 33  1  0     0  0
 33 34  1  0     0  0
M  END
> <standard_type>
pIC50

> <# Confs.>
25

> <canonical_smiles>
O=C(CC1=CC=CC=C1CC(O)=O)NC2=CC=C(CN3C(COC)=C(Cl)N=C3CCCC)C=C2

> <standard_relation>
=

> <Publication_ID>
nan

> <predicted_activity_value>
5.1487416512809245

> <actual_activity_value>
5.552841968657781

> <Compound>
17

> <standard_units>
nM

> hash
15369469530252257554

$$$$
17_
XXILIB    08252103513D 0   0.00000     0.00000

 34 36  0     1  0            999 V2000
    3.3007   -1.4761    4.6752 Cl  0  0  0  0  0  1           0  0  0
   -9.8603    0.3694   -1.7804 O   0  0  0  0  0  2           0  0  0
   -4.8662    0.0949   -2.1788 O   0  0  0  0  0  2           0  0  0
    3.3921   -2.8894    1.0374 O   0  0  0  0  0  2           0  0  0
   -9.8672    1.1069   -3.9357 O   0  0  0  0  0  2           0  0  0
    2.0229    0.0000    1.3517 N   0  0  0  0  0  3           0  0  0
    2.7702    0.7729    3.2963 N   0  0  0  0  0  3           0  0  0
   -4.2221    0.0472    0.0543 N   0  0  0  0  0  3           0  0  0
    2.7814   -0.5972    3.3094 C   0  0  0  0  0  4           0  0  0
    2.3165    1.1181    2.1082 C   0  0  0  0  0  4           0  0  0
    2.3291   -1.1136    2.1092 C   0  0  0  0  0  4           0  0  0
   -2.8151    0.0346   -0.0004 C   0  0  0  0  0  4           0  0  0
   -7.7504    2.2182   -1.2226 C   0  0  0  0  0  4           0  0  0
   -7.0812    1.4702   -0.2285 C   0  0  0  0  0  4           0  0  0
    0.0000    0.0000    0.0000 C   0  0  0  0  0  4           0  0  0
   -2.1086    0.0153    1.2063 C   0  0  0  0  0  4           0  0  0
   -2.1114    0.0406   -1.2090 C   0  0  0  0  0  4           0  0  0
   -8.2280    3.5037   -0.9044 C   0  0  0  0  0  4           0  0  0
   -6.9047    2.0367    1.0478 C   0  0  0  0  0  4           0  0  0
   -0.7119    0.0000    1.2059 C   0  0  0  0  0  4           0  0  0
   -0.7134    0.0252   -1.2060 C   0  0  0  0  0  4           0  0  0
   -8.0385    4.0495    0.3641 C   0  0  0  0  0  4           0  0  0
   -7.3745    3.3165    1.3399 C   0  0  0  0  0  4           0  0  0
   -9.3265    0.9758   -2.6985 C   0  0  0  0  0  4           0  0  0
   -5.1435    0.0667   -0.9817 C   0  0  0  0  0  4           0  0  0
    2.1677   -2.5140    1.6566 C   0  0  0  0  0  4           0  0  0
    3.3490   -4.2282    0.5610 C   0  0  0  0  0  4           0  0  0
    1.4983    0.0000    0.0000 C   0  0  0  0  0  4           0  0  0
    2.1356    2.5200    1.6472 C   0  0  0  0  0  4           0  0  0
   -8.0129    1.6925   -2.6027 C   0  0  0  0  0  4           0  0  0
   -6.5655    0.0745   -0.4625 C   0  0  0  0  0  4           0  0  0
    3.3795    3.0691    0.9550 C   0  0  0  0  0  4           0  0  0
    3.1669    4.5074    0.4926 C   0  0  0  0  0  4           0  0  0
    4.4041    5.0589   -0.1980 C   0  0  0  0  0  4           0  0  0
  1  9  1  0     0  0
  2 24  2  0     0  0
  3 25  2  0     0  0
  4 26  1  0     0  0
  4 27  1  0     0  0
  5 24  1  0     0  0
  6 10  1  0     0  0
  6 11  1  0     0  0
  6 28  1  0     0  0
  7  9  1  0     0  0
  7 10  2  0     0  0
  8 12  1  0     0  0
  8 25  1  0     0  0
  9 11  2  0     0  0
 10 29  1  0     0  0
 11 26  1  0     0  0
 12 16  2  0     0  0
 12 17  1  0     0  0
 13 14  1  0     0  0
 13 18  2  0     0  0
 13 30  1  0     0  0
 14 19  2  0     0  0
 14 31  1  0     0  0
 15 20  2  0     0  0
 15 21  1  0     0  0
 15 28  1  0     0  0
 16 20  1  0     0  0
 17 21  2  0     0  0
 18 22  1  0     0  0
 19 23  1  0     0  0
 22 23  2  0     0  0
 24 30  1  0     0  0
 25 31  1  0     0  0
 29 32  1  0     0  0
 32 33  1  0     0  0
 33 34  1  0     0  0
M  END
> <standard_type>
pIC50

> <# Confs.>
25

> <canonical_smiles>
O=C(CC1=CC=CC=C1CC(O)=O)NC2=CC=C(CN3C(COC)=C(Cl)N=C3CCCC)C=C2

> <standard_relation>
=

> <Publication_ID>
nan

> <predicted_activity_value>
5.1487416512809245

> <actual_activity_value>
5.552841968657781

> <Compound>
17

> <standard_units>
nM

> hash
15369469530252257554

$$$$
17_
XXILIB    08252103513D 0   0.00000     0.00000

 34 36  0     1  0            999 V2000
    3.3007   -1.4761    4.6752 Cl  0  0  0  0  0  1           0  0  0
   -9.7652    1.1700   -1.5634 O   0  0  0  0  0  2           0  0  0
   -4.8662    0.0949   -2.1788 O   0  0  0  0  0  2           0  0  0
    3.3921   -2.8894    1.0374 O   0  0  0  0  0  2           0  0  0
   -9.7616    1.7017   -3.7784 O   0  0  0  0  0  2           0  0  0
    2.0229    0.0000    1.3517 N   0  0  0  0  0  3           0  0  0
    2.7702    0.7729    3.2963 N   0  0  0  0  0  3           0  0  0
   -4.2221    0.0472    0.0543 N   0  0  0  0  0  3           0  0  0
    2.7814   -0.5972    3.3094 C   0  0  0  0  0  4           0  0  0
    2.3165    1.1181    2.1082 C   0  0  0  0  0  4           0  0  0
    2.3291   -1.1136    2.1092 C   0  0  0  0  0  4           0  0  0
   -2.8151    0.0346   -0.0004 C   0  0  0  0  0  4           0  0  0
   -8.1076   -1.0855   -2.1517 C   0  0  0  0  0  4           0  0  0
   -7.3600   -1.1073   -0.9534 C   0  0  0  0  0  4           0  0  0
    0.0000    0.0000   -0.0000 C   0  0  0  0  0  4           0  0  0
   -2.1086    0.0153    1.2063 C   0  0  0  0  0  4           0  0  0
   -2.1114    0.0406   -1.2090 C   0  0  0  0  0  4           0  0  0
   -8.7936   -2.2485   -2.5501 C   0  0  0  0  0  4           0  0  0
   -7.3308   -2.2890   -0.1894 C   0  0  0  0  0  4           0  0  0
   -0.7119    0.0000    1.2059 C   0  0  0  0  0  4           0  0  0
   -0.7134    0.0252   -1.2060 C   0  0  0  0  0  4           0  0  0
   -8.7568   -3.4076   -1.7767 C   0  0  0  0  0  4           0  0  0
   -8.0269   -3.4271   -0.5947 C   0  0  0  0  0  4           0  0  0
   -9.3126    1.0274   -2.6904 C   0  0  0  0  0  4           0  0  0
   -5.1435    0.0667   -0.9817 C   0  0  0  0  0  4           0  0  0
    2.1677   -2.5140    1.6566 C   0  0  0  0  0  4           0  0  0
    3.3490   -4.2282    0.5610 C   0  0  0  0  0  4           0  0  0
    1.4983    0.0000    0.0000 C   0  0  0  0  0  4           0  0  0
    2.1356    2.5200    1.6472 C   0  0  0  0  0  4           0  0  0
   -8.1784    0.1143   -3.0491 C   0  0  0  0  0  4           0  0  0
   -6.5655    0.0745   -0.4625 C   0  0  0  0  0  4           0  0  0
    3.3795    3.0691    0.9550 C   0  0  0  0  0  4           0  0  0
    3.1669    4.5074    0.4926 C   0  0  0  0  0  4           0  0  0
    4.4041    5.0589   -0.1980 C   0  0  0  0  0  4           0  0  0
  1  9  1  0     0  0
  2 24  2  0     0  0
  3 25  2  0     0  0
  4 26  1  0     0  0
  4 27  1  0     0  0
  5 24  1  0     0  0
  6 10  1  0     0  0
  6 11  1  0     0  0
  6 28  1  0     0  0
  7  9  1  0     0  0
  7 10  2  0     0  0
  8 12  1  0     0  0
  8 25  1  0     0  0
  9 11  2  0     0  0
 10 29  1  0     0  0
 11 26  1  0     0  0
 12 16  2  0     0  0
 12 17  1  0     0  0
 13 14  1  0     0  0
 13 18  2  0     0  0
 13 30  1  0     0  0
 14 19  2  0     0  0
 14 31  1  0     0  0
 15 20  2  0     0  0
 15 21  1  0     0  0
 15 28  1  0     0  0
 16 20  1  0     0  0
 17 21  2  0     0  0
 18 22  1  0     0  0
 19 23  1  0     0  0
 22 23  2  0     0  0
 24 30  1  0     0  0
 25 31  1  0     0  0
 29 32  1  0     0  0
 32 33  1  0     0  0
 33 34  1  0     0  0
M  END
> <standard_type>
pIC50

> <# Confs.>
25

> <canonical_smiles>
O=C(CC1=CC=CC=C1CC(O)=O)NC2=CC=C(CN3C(COC)=C(Cl)N=C3CCCC)C=C2

> <standard_relation>
=

> <Publication_ID>
nan

> <predicted_activity_value>
5.1487416512809245

> <actual_activity_value>
5.552841968657781

> <Compound>
17

> <standard_units>
nM

> hash
15369469530252257554

$$$$
17_
XXILIB    08252103513D 0   0.00000     0.00000

 34 36  0     1  0            999 V2000
    3.3217    1.4761    4.6670 Cl  0  0  0  0  0  1           0  0  0
   -9.7652    1.1700   -1.5634 O   0  0  0  0  0  2           0  0  0
   -4.8662    0.0949   -2.1788 O   0  0  0  0  0  2           0  0  0
    3.3401    2.9158    1.0597 O   0  0  0  0  0  2           0  0  0
   -9.7616    1.7017   -3.7784 O   0  0  0  0  0  2           0  0  0
    2.0229    0.0000    1.3517 N   0  0  0  0  0  3           0  0  0
    2.7831   -0.7729    3.2912 N   0  0  0  0  0  3           0  0  0
   -4.2221    0.0472    0.0543 N   0  0  0  0  0  3           0  0  0
    2.7837    0.5972    3.3086 C   0  0  0  0  0  4           0  0  0
    2.3165   -1.1181    2.1082 C   0  0  0  0  0  4           0  0  0
    2.3079    1.1136    2.1174 C   0  0  0  0  0  4           0  0  0
   -2.8151    0.0346   -0.0004 C   0  0  0  0  0  4           0  0  0
   -8.1076   -1.0855   -2.1517 C   0  0  0  0  0  4           0  0  0
   -7.3600   -1.1073   -0.9534 C   0  0  0  0  0  4           0  0  0
    0.0000    0.0000   -0.0000 C   0  0  0  0  0  4           0  0  0
   -2.1086    0.0153    1.2063 C   0  0  0  0  0  4           0  0  0
   -2.1114    0.0406   -1.2090 C   0  0  0  0  0  4           0  0  0
   -8.7936   -2.2485   -2.5501 C   0  0  0  0  0  4           0  0  0
   -7.3308   -2.2890   -0.1894 C   0  0  0  0  0  4           0  0  0
   -0.7119    0.0000    1.2059 C   0  0  0  0  0  4           0  0  0
   -0.7134    0.0252   -1.2060 C   0  0  0  0  0  4           0  0  0
   -8.7568   -3.4076   -1.7767 C   0  0  0  0  0  4           0  0  0
   -8.0269   -3.4271   -0.5947 C   0  0  0  0  0  4           0  0  0
   -9.3126    1.0274   -2.6904 C   0  0  0  0  0  4           0  0  0
   -5.1435    0.0667   -0.9817 C   0  0  0  0  0  4           0  0  0
    2.1218    2.5140    1.6744 C   0  0  0  0  0  4           0  0  0
    3.2734    4.2569    0.5927 C   0  0  0  0  0  4           0  0  0
    1.4983    0.0000    0.0000 C   0  0  0  0  0  4           0  0  0
    2.1391   -2.5200    1.6459 C   0  0  0  0  0  4           0  0  0
   -8.1784    0.1143   -3.0491 C   0  0  0  0  0  4           0  0  0
   -6.5655    0.0745   -0.4625 C   0  0  0  0  0  4           0  0  0
    3.3856   -3.0666    0.9564 C   0  0  0  0  0  4           0  0  0
    3.1765   -4.5049    0.4925 C   0  0  0  0  0  4           0  0  0
    4.4163   -5.0539   -0.1954 C   0  0  0  0  0  4           0  0  0
  1  9  1  0     0  0
  2 24  2  0     0  0
  3 25  2  0     0  0
  4 26  1  0     0  0
  4 27  1  0     0  0
  5 24  1  0     0  0
  6 10  1  0     0  0
  6 11  1  0     0  0
  6 28  1  0     0  0
  7  9  1  0     0  0
  7 10  2  0     0  0
  8 12  1  0     0  0
  8 25  1  0     0  0
  9 11  2  0     0  0
 10 29  1  0     0  0
 11 26  1  0     0  0
 12 16  2  0     0  0
 12 17  1  0     0  0
 13 14  1  0     0  0
 13 18  2  0     0  0
 13 30  1  0     0  0
 14 19  2  0     0  0
 14 31  1  0     0  0
 15 20  2  0     0  0
 15 21  1  0     0  0
 15 28  1  0     0  0
 16 20  1  0     0  0
 17 21  2  0     0  0
 18 22  1  0     0  0
 19 23  1  0     0  0
 22 23  2  0     0  0
 24 30  1  0     0  0
 25 31  1  0     0  0
 29 32  1  0     0  0
 32 33  1  0     0  0
 33 34  1  0     0  0
M  END
> <standard_type>
pIC50

> <# Confs.>
25

> <canonical_smiles>
O=C(CC1=CC=CC=C1CC(O)=O)NC2=CC=C(CN3C(COC)=C(Cl)N=C3CCCC)C=C2

> <standard_relation>
=

> <Publication_ID>
nan

> <predicted_activity_value>
5.1487416512809245

> <actual_activity_value>
5.552841968657781

> <Compound>
17

> <standard_units>
nM

> hash
15369469530252257554

$$$$
17_
XXILIB    08252103513D 0   0.00000     0.00000

 34 36  0     1  0            999 V2000
    3.3217   -1.4761   -4.6670 Cl  0  0  0  0  0  1           0  0  0
   -9.8586   -0.0406   -1.8012 O   0  0  0  0  0  2           0  0  0
   -4.8662    0.0949   -2.1788 O   0  0  0  0  0  2           0  0  0
    3.3401   -2.9158   -1.0597 O   0  0  0  0  0  2           0  0  0
   -9.8567   -0.6204   -4.0041 O   0  0  0  0  0  2           0  0  0
    2.0229    0.0000   -1.3517 N   0  0  0  0  0  3           0  0  0
    2.7831    0.7729   -3.2912 N   0  0  0  0  0  3           0  0  0
   -4.2221    0.0472    0.0543 N   0  0  0  0  0  3           0  0  0
    2.7837   -0.5972   -3.3086 C   0  0  0  0  0  4           0  0  0
    2.3165    1.1181   -2.1082 C   0  0  0  0  0  4           0  0  0
    2.3079   -1.1136   -2.1174 C   0  0  0  0  0  4           0  0  0
   -2.8151    0.0346   -0.0004 C   0  0  0  0  0  4           0  0  0
   -7.8152   -1.9873   -1.3370 C   0  0  0  0  0  4           0  0  0
   -7.1242   -1.3154   -0.3043 C   0  0  0  0  0  4           0  0  0
    0.0000    0.0000    0.0000 C   0  0  0  0  0  4           0  0  0
   -2.1086    0.0153    1.2063 C   0  0  0  0  0  4           0  0  0
   -2.1114    0.0406   -1.2090 C   0  0  0  0  0  4           0  0  0
   -8.2740   -3.2989   -1.1109 C   0  0  0  0  0  4           0  0  0
   -6.9231   -1.9748    0.9228 C   0  0  0  0  0  4           0  0  0
   -0.7119    0.0000    1.2059 C   0  0  0  0  0  4           0  0  0
   -0.7134    0.0252   -1.2060 C   0  0  0  0  0  4           0  0  0
   -8.0697   -3.9330    0.1135 C   0  0  0  0  0  4           0  0  0
   -7.3959   -3.2698    1.1316 C   0  0  0  0  0  4           0  0  0
   -9.3429   -0.6165   -2.7488 C   0  0  0  0  0  4           0  0  0
   -5.1435    0.0667   -0.9817 C   0  0  0  0  0  4           0  0  0
    2.1218   -2.5140   -1.6744 C   0  0  0  0  0  4           0  0  0
    3.2734   -4.2569   -0.5927 C   0  0  0  0  0  4           0  0  0
    1.4983   -0.0000   -0.0000 C   0  0  0  0  0  4           0  0  0
    2.1391    2.5200   -1.6459 C   0  0  0  0  0  4           0  0  0
   -8.0549   -1.3820   -2.6882 C   0  0  0  0  0  4           0  0  0
   -6.5655    0.0745   -0.4625 C   0  0  0  0  0  4           0  0  0
    3.3856    3.0666   -0.9564 C   0  0  0  0  0  4           0  0  0
    3.1765    4.5049   -0.4925 C   0  0  0  0  0  4           0  0  0
    4.4163    5.0539    0.1954 C   0  0  0  0  0  4           0  0  0
  1  9  1  0     0  0
  2 24  2  0     0  0
  3 25  2  0     0  0
  4 26  1  0     0  0
  4 27  1  0     0  0
  5 24  1  0     0  0
  6 10  1  0     0  0
  6 11  1  0     0  0
  6 28  1  0     0  0
  7  9  1  0     0  0
  7 10  2  0     0  0
  8 12  1  0     0  0
  8 25  1  0     0  0
  9 11  2  0     0  0
 10 29  1  0     0  0
 11 26  1  0     0  0
 12 16  2  0     0  0
 12 17  1  0     0  0
 13 14  1  0     0  0
 13 18  2  0     0  0
 13 30  1  0     0  0
 14 19  2  0     0  0
 14 31  1  0     0  0
 15 20  2  0     0  0
 15 21  1  0     0  0
 15 28  1  0     0  0
 16 20  1  0     0  0
 17 21  2  0     0  0
 18 22  1  0     0  0
 19 23  1  0     0  0
 22 23  2  0     0  0
 24 30  1  0     0  0
 25 31  1  0     0  0
 29 32  1  0     0  0
 32 33  1  0     0  0
 33 34  1  0     0  0
M  END
> <standard_type>
pIC50

> <# Confs.>
25

> <canonical_smiles>
O=C(CC1=CC=CC=C1CC(O)=O)NC2=CC=C(CN3C(COC)=C(Cl)N=C3CCCC)C=C2

> <standard_relation>
=

> <Publication_ID>
nan

> <predicted_activity_value>
5.1487416512809245

> <actual_activity_value>
5.552841968657781

> <Compound>
17

> <standard_units>
nM

> hash
15369469530252257554

$$$$
17_
XXILIB    08252103513D 0   0.00000     0.00000

 34 36  0     1  0            999 V2000
    3.3007   -1.4761    4.6752 Cl  0  0  0  0  0  1           0  0  0
   -9.8586   -0.0406   -1.8012 O   0  0  0  0  0  2           0  0  0
   -4.8662    0.0949   -2.1788 O   0  0  0  0  0  2           0  0  0
    0.8536   -2.9158    2.0247 O   0  0  0  0  0  2           0  0  0
   -9.8567   -0.6204   -4.0041 O   0  0  0  0  0  2           0  0  0
    2.0229    0.0000    1.3517 N   0  0  0  0  0  3           0  0  0
    2.7702    0.7729    3.2963 N   0  0  0  0  0  3           0  0  0
   -4.2221    0.0472    0.0543 N   0  0  0  0  0  3           0  0  0
    2.7814   -0.5972    3.3094 C   0  0  0  0  0  4           0  0  0
    2.3165    1.1181    2.1082 C   0  0  0  0  0  4           0  0  0
    2.3291   -1.1136    2.1092 C   0  0  0  0  0  4           0  0  0
   -2.8151    0.0346   -0.0004 C   0  0  0  0  0  4           0  0  0
   -7.8152   -1.9873   -1.3370 C   0  0  0  0  0  4           0  0  0
   -7.1242   -1.3154   -0.3043 C   0  0  0  0  0  4           0  0  0
    0.0000    0.0000    0.0000 C   0  0  0  0  0  4           0  0  0
   -2.1086    0.0153    1.2063 C   0  0  0  0  0  4           0  0  0
   -2.1114    0.0406   -1.2090 C   0  0  0  0  0  4           0  0  0
   -8.2740   -3.2989   -1.1109 C   0  0  0  0  0  4           0  0  0
   -6.9231   -1.9748    0.9228 C   0  0  0  0  0  4           0  0  0
   -0.7119    0.0000    1.2059 C   0  0  0  0  0  4           0  0  0
   -0.7134    0.0252   -1.2060 C   0  0  0  0  0  4           0  0  0
   -8.0697   -3.9330    0.1135 C   0  0  0  0  0  4           0  0  0
   -7.3959   -3.2698    1.1316 C   0  0  0  0  0  4           0  0  0
   -9.3429   -0.6165   -2.7488 C   0  0  0  0  0  4           0  0  0
   -5.1435    0.0667   -0.9817 C   0  0  0  0  0  4           0  0  0
    2.1677   -2.5140    1.6566 C   0  0  0  0  0  4           0  0  0
    0.5878   -4.2569    1.6350 C   0  0  0  0  0  4           0  0  0
    1.4983    0.0000    0.0000 C   0  0  0  0  0  4           0  0  0
    2.1356    2.5200    1.6472 C   0  0  0  0  0  4           0  0  0
   -8.0549   -1.3820   -2.6882 C   0  0  0  0  0  4           0  0  0
   -6.5655    0.0745   -0.4625 C   0  0  0  0  0  4           0  0  0
    3.3795    3.0691    0.9550 C   0  0  0  0  0  4           0  0  0
    3.1669    4.5074    0.4926 C   0  0  0  0  0  4           0  0  0
    4.4041    5.0589   -0.1980 C   0  0  0  0  0  4           0  0  0
  1  9  1  0     0  0
  2 24  2  0     0  0
  3 25  2  0     0  0
  4 26  1  0     0  0
  4 27  1  0     0  0
  5 24  1  0     0  0
  6 10  1  0     0  0
  6 11  1  0     0  0
  6 28  1  0     0  0
  7  9  1  0     0  0
  7 10  2  0     0  0
  8 12  1  0     0  0
  8 25  1  0     0  0
  9 11  2  0     0  0
 10 29  1  0     0  0
 11 26  1  0     0  0
 12 16  2  0     0  0
 12 17  1  0     0  0
 13 14  1  0     0  0
 13 18  2  0     0  0
 13 30  1  0     0  0
 14 19  2  0     0  0
 14 31  1  0     0  0
 15 20  2  0     0  0
 15 21  1  0     0  0
 15 28  1  0     0  0
 16 20  1  0     0  0
 17 21  2  0     0  0
 18 22  1  0     0  0
 19 23  1  0     0  0
 22 23  2  0     0  0
 24 30  1  0     0  0
 25 31  1  0     0  0
 29 32  1  0     0  0
 32 33  1  0     0  0
 33 34  1  0     0  0
M  END
> <standard_type>
pIC50

> <# Confs.>
25

> <canonical_smiles>
O=C(CC1=CC=CC=C1CC(O)=O)NC2=CC=C(CN3C(COC)=C(Cl)N=C3CCCC)C=C2

> <standard_relation>
=

> <Publication_ID>
nan

> <predicted_activity_value>
5.1487416512809245

> <actual_activity_value>
5.552841968657781

> <Compound>
17

> <standard_units>
nM

> hash
15369469530252257554

$$$$
17_
XXILIB    08252103513D 0   0.00000     0.00000

 34 36  0     1  0            999 V2000
    3.3007    1.4761   -4.6752 Cl  0  0  0  0  0  1           0  0  0
   -9.8586   -0.0406   -1.8012 O   0  0  0  0  0  2           0  0  0
   -4.8662    0.0949   -2.1788 O   0  0  0  0  0  2           0  0  0
    3.3921    2.8894   -1.0374 O   0  0  0  0  0  2           0  0  0
   -9.8567   -0.6204   -4.0041 O   0  0  0  0  0  2           0  0  0
    2.0229    0.0000   -1.3517 N   0  0  0  0  0  3           0  0  0
    2.7702   -0.7729   -3.2963 N   0  0  0  0  0  3           0  0  0
   -4.2221    0.0472    0.0543 N   0  0  0  0  0  3           0  0  0
    2.7814    0.5972   -3.3094 C   0  0  0  0  0  4           0  0  0
    2.3165   -1.1181   -2.1082 C   0  0  0  0  0  4           0  0  0
    2.3291    1.1136   -2.1092 C   0  0  0  0  0  4           0  0  0
   -2.8151    0.0346   -0.0004 C   0  0  0  0  0  4           0  0  0
   -7.8152   -1.9873   -1.3370 C   0  0  0  0  0  4           0  0  0
   -7.1242   -1.3154   -0.3043 C   0  0  0  0  0  4           0  0  0
    0.0000    0.0000    0.0000 C   0  0  0  0  0  4           0  0  0
   -2.1086    0.0153    1.2063 C   0  0  0  0  0  4           0  0  0
   -2.1114    0.0406   -1.2090 C   0  0  0  0  0  4           0  0  0
   -8.2740   -3.2989   -1.1109 C   0  0  0  0  0  4           0  0  0
   -6.9231   -1.9748    0.9228 C   0  0  0  0  0  4           0  0  0
   -0.7119    0.0000    1.2059 C   0  0  0  0  0  4           0  0  0
   -0.7134    0.0252   -1.2060 C   0  0  0  0  0  4           0  0  0
   -8.0697   -3.9330    0.1135 C   0  0  0  0  0  4           0  0  0
   -7.3959   -3.2698    1.1316 C   0  0  0  0  0  4           0  0  0
   -9.3429   -0.6165   -2.7488 C   0  0  0  0  0  4           0  0  0
   -5.1435    0.0667   -0.9817 C   0  0  0  0  0  4           0  0  0
    2.1677    2.5140   -1.6566 C   0  0  0  0  0  4           0  0  0
    3.3490    4.2282   -0.5610 C   0  0  0  0  0  4           0  0  0
    1.4983   -0.0000   -0.0000 C   0  0  0  0  0  4           0  0  0
    2.1356   -2.5200   -1.6472 C   0  0  0  0  0  4           0  0  0
   -8.0549   -1.3820   -2.6882 C   0  0  0  0  0  4           0  0  0
   -6.5655    0.0745   -0.4625 C   0  0  0  0  0  4           0  0  0
    3.3795   -3.0691   -0.9550 C   0  0  0  0  0  4           0  0  0
    3.1669   -4.5074   -0.4926 C   0  0  0  0  0  4           0  0  0
    4.4041   -5.0589    0.1980 C   0  0  0  0  0  4           0  0  0
  1  9  1  0     0  0
  2 24  2  0     0  0
  3 25  2  0     0  0
  4 26  1  0     0  0
  4 27  1  0     0  0
  5 24  1  0     0  0
  6 10  1  0     0  0
  6 11  1  0     0  0
  6 28  1  0     0  0
  7  9  1  0     0  0
  7 10  2  0     0  0
  8 12  1  0     0  0
  8 25  1  0     0  0
  9 11  2  0     0  0
 10 29  1  0     0  0
 11 26  1  0     0  0
 12 16  2  0     0  0
 12 17  1  0     0  0
 13 14  1  0     0  0
 13 18  2  0     0  0
 13 30  1  0     0  0
 14 19  2  0     0  0
 14 31  1  0     0  0
 15 20  2  0     0  0
 15 21  1  0     0  0
 15 28  1  0     0  0
 16 20  1  0     0  0
 17 21  2  0     0  0
 18 22  1  0     0  0
 19 23  1  0     0  0
 22 23  2  0     0  0
 24 30  1  0     0  0
 25 31  1  0     0  0
 29 32  1  0     0  0
 32 33  1  0     0  0
 33 34  1  0     0  0
M  END
> <standard_type>
pIC50

> <# Confs.>
25

> <canonical_smiles>
O=C(CC1=CC=CC=C1CC(O)=O)NC2=CC=C(CN3C(COC)=C(Cl)N=C3CCCC)C=C2

> <standard_relation>
=

> <Publication_ID>
nan

> <predicted_activity_value>
5.1487416512809245

> <actual_activity_value>
5.552841968657781

> <Compound>
17

> <standard_units>
nM

> hash
15369469530252257554

$$$$
17_
XXILIB    08252103513D 0   0.00000     0.00000

 34 36  0     1  0            999 V2000
    3.3007   -1.4761    4.6752 Cl  0  0  0  0  0  1           0  0  0
  -10.1234   -0.4873   -1.8163 O   0  0  0  0  0  2           0  0  0
   -4.8662    0.0949   -2.1788 O   0  0  0  0  0  2           0  0  0
    3.3921   -2.8894    1.0374 O   0  0  0  0  0  2           0  0  0
   -9.5237   -0.0576   -3.9715 O   0  0  0  0  0  2           0  0  0
    2.0229    0.0000    1.3517 N   0  0  0  0  0  3           0  0  0
    2.7702    0.7729    3.2963 N   0  0  0  0  0  3           0  0  0
   -4.2221    0.0472    0.0543 N   0  0  0  0  0  3           0  0  0
    2.7814   -0.5972    3.3094 C   0  0  0  0  0  4           0  0  0
    2.3165    1.1181    2.1082 C   0  0  0  0  0  4           0  0  0
    2.3291   -1.1136    2.1092 C   0  0  0  0  0  4           0  0  0
   -2.8151    0.0346   -0.0004 C   0  0  0  0  0  4           0  0  0
   -7.8152   -1.9873   -1.3370 C   0  0  0  0  0  4           0  0  0
   -7.1242   -1.3154   -0.3043 C   0  0  0  0  0  4           0  0  0
    0.0000    0.0000    0.0000 C   0  0  0  0  0  4           0  0  0
   -2.1086    0.0153    1.2063 C   0  0  0  0  0  4           0  0  0
   -2.1114    0.0406   -1.2090 C   0  0  0  0  0  4           0  0  0
   -8.2740   -3.2989   -1.1109 C   0  0  0  0  0  4           0  0  0
   -6.9231   -1.9748    0.9228 C   0  0  0  0  0  4           0  0  0
   -0.7119    0.0000    1.2059 C   0  0  0  0  0  4           0  0  0
   -0.7134    0.0252   -1.2060 C   0  0  0  0  0  4           0  0  0
   -8.0697   -3.9330    0.1135 C   0  0  0  0  0  4           0  0  0
   -7.3959   -3.2698    1.1316 C   0  0  0  0  0  4           0  0  0
   -9.3429   -0.6165   -2.7488 C   0  0  0  0  0  4           0  0  0
   -5.1435    0.0667   -0.9817 C   0  0  0  0  0  4           0  0  0
    2.1677   -2.5140    1.6566 C   0  0  0  0  0  4           0  0  0
    3.3490   -4.2282    0.5610 C   0  0  0  0  0  4           0  0  0
    1.4983    0.0000    0.0000 C   0  0  0  0  0  4           0  0  0
    2.1356    2.5200    1.6472 C   0  0  0  0  0  4           0  0  0
   -8.0549   -1.3820   -2.6882 C   0  0  0  0  0  4           0  0  0
   -6.5655    0.0745   -0.4625 C   0  0  0  0  0  4           0  0  0
    2.5473    3.5378    2.7067 C   0  0  0  0  0  4           0  0  0
    2.3518    4.9664    2.2083 C   0  0  0  0  0  4           0  0  0
    2.7609    5.9843    3.2610 C   0  0  0  0  0  4           0  0  0
  1  9  1  0     0  0
  2 24  2  0     0  0
  3 25  2  0     0  0
  4 26  1  0     0  0
  4 27  1  0     0  0
  5 24  1  0     0  0
  6 10  1  0     0  0
  6 11  1  0     0  0
  6 28  1  0     0  0
  7  9  1  0     0  0
  7 10  2  0     0  0
  8 12  1  0     0  0
  8 25  1  0     0  0
  9 11  2  0     0  0
 10 29  1  0     0  0
 11 26  1  0     0  0
 12 16  2  0     0  0
 12 17  1  0     0  0
 13 14  1  0     0  0
 13 18  2  0     0  0
 13 30  1  0     0  0
 14 19  2  0     0  0
 14 31  1  0     0  0
 15 20  2  0     0  0
 15 21  1  0     0  0
 15 28  1  0     0  0
 16 20  1  0     0  0
 17 21  2  0     0  0
 18 22  1  0     0  0
 19 23  1  0     0  0
 22 23  2  0     0  0
 24 30  1  0     0  0
 25 31  1  0     0  0
 29 32  1  0     0  0
 32 33  1  0     0  0
 33 34  1  0     0  0
M  END
> <standard_type>
pIC50

> <# Confs.>
25

> <canonical_smiles>
O=C(CC1=CC=CC=C1CC(O)=O)NC2=CC=C(CN3C(COC)=C(Cl)N=C3CCCC)C=C2

> <standard_relation>
=

> <Publication_ID>
nan

> <predicted_activity_value>
5.1487416512809245

> <actual_activity_value>
5.552841968657781

> <Compound>
17

> <standard_units>
nM

> hash
15369469530252257554

$$$$
17_
XXILIB    08252103513D 0   0.00000     0.00000

 34 36  0     1  0            999 V2000
    3.3217    1.4761    4.6670 Cl  0  0  0  0  0  1           0  0  0
   -9.8586   -0.0406   -1.8012 O   0  0  0  0  0  2           0  0  0
   -4.8662    0.0949   -2.1788 O   0  0  0  0  0  2           0  0  0
    0.8002    2.8894    2.0433 O   0  0  0  0  0  2           0  0  0
   -9.8567   -0.6204   -4.0041 O   0  0  0  0  0  2           0  0  0
    2.0229    0.0000    1.3517 N   0  0  0  0  0  3           0  0  0
    2.7831   -0.7729    3.2912 N   0  0  0  0  0  3           0  0  0
   -4.2221    0.0472    0.0543 N   0  0  0  0  0  3           0  0  0
    2.7837    0.5972    3.3086 C   0  0  0  0  0  4           0  0  0
    2.3165   -1.1181    2.1082 C   0  0  0  0  0  4           0  0  0
    2.3079    1.1136    2.1174 C   0  0  0  0  0  4           0  0  0
   -2.8151    0.0346   -0.0004 C   0  0  0  0  0  4           0  0  0
   -7.8152   -1.9873   -1.3370 C   0  0  0  0  0  4           0  0  0
   -7.1242   -1.3154   -0.3043 C   0  0  0  0  0  4           0  0  0
    0.0000    0.0000    0.0000 C   0  0  0  0  0  4           0  0  0
   -2.1086    0.0153    1.2063 C   0  0  0  0  0  4           0  0  0
   -2.1114    0.0406   -1.2090 C   0  0  0  0  0  4           0  0  0
   -8.2740   -3.2989   -1.1109 C   0  0  0  0  0  4           0  0  0
   -6.9231   -1.9748    0.9228 C   0  0  0  0  0  4           0  0  0
   -0.7119    0.0000    1.2059 C   0  0  0  0  0  4           0  0  0
   -0.7134    0.0252   -1.2060 C   0  0  0  0  0  4           0  0  0
   -8.0697   -3.9330    0.1135 C   0  0  0  0  0  4           0  0  0
   -7.3959   -3.2698    1.1316 C   0  0  0  0  0  4           0  0  0
   -9.3429   -0.6165   -2.7488 C   0  0  0  0  0  4           0  0  0
   -5.1435    0.0667   -0.9817 C   0  0  0  0  0  4           0  0  0
    2.1218    2.5140    1.6744 C   0  0  0  0  0  4           0  0  0
    0.5107    4.2282    1.6626 C   0  0  0  0  0  4           0  0  0
    1.4983    0.0000    0.0000 C   0  0  0  0  0  4           0  0  0
    2.1391   -2.5200    1.6459 C   0  0  0  0  0  4           0  0  0
   -8.0549   -1.3820   -2.6882 C   0  0  0  0  0  4           0  0  0
   -6.5655    0.0745   -0.4625 C   0  0  0  0  0  4           0  0  0
    3.3856   -3.0666    0.9564 C   0  0  0  0  0  4           0  0  0
    3.1765   -4.5049    0.4925 C   0  0  0  0  0  4           0  0  0
    4.4163   -5.0539   -0.1954 C   0  0  0  0  0  4           0  0  0
  1  9  1  0     0  0
  2 24  2  0     0  0
  3 25  2  0     0  0
  4 26  1  0     0  0
  4 27  1  0     0  0
  5 24  1  0     0  0
  6 10  1  0     0  0
  6 11  1  0     0  0
  6 28  1  0     0  0
  7  9  1  0     0  0
  7 10  2  0     0  0
  8 12  1  0     0  0
  8 25  1  0     0  0
  9 11  2  0     0  0
 10 29  1  0     0  0
 11 26  1  0     0  0
 12 16  2  0     0  0
 12 17  1  0     0  0
 13 14  1  0     0  0
 13 18  2  0     0  0
 13 30  1  0     0  0
 14 19  2  0     0  0
 14 31  1  0     0  0
 15 20  2  0     0  0
 15 21  1  0     0  0
 15 28  1  0     0  0
 16 20  1  0     0  0
 17 21  2  0     0  0
 18 22  1  0     0  0
 19 23  1  0     0  0
 22 23  2  0     0  0
 24 30  1  0     0  0
 25 31  1  0     0  0
 29 32  1  0     0  0
 32 33  1  0     0  0
 33 34  1  0     0  0
M  END
> <standard_type>
pIC50

> <# Confs.>
25

> <canonical_smiles>
O=C(CC1=CC=CC=C1CC(O)=O)NC2=CC=C(CN3C(COC)=C(Cl)N=C3CCCC)C=C2

> <standard_relation>
=

> <Publication_ID>
nan

> <predicted_activity_value>
5.1487416512809245

> <actual_activity_value>
5.552841968657781

> <Compound>
17

> <standard_units>
nM

> hash
15369469530252257554

$$$$
17_
XXILIB    08252103513D 0   0.00000     0.00000

 34 36  0     1  0            999 V2000
    3.3217    1.4761    4.6670 Cl  0  0  0  0  0  1           0  0  0
  -10.1234   -0.4873   -1.8163 O   0  0  0  0  0  2           0  0  0
   -4.8662    0.0949   -2.1788 O   0  0  0  0  0  2           0  0  0
    3.3401    2.9158    1.0597 O   0  0  0  0  0  2           0  0  0
   -9.5237   -0.0576   -3.9715 O   0  0  0  0  0  2           0  0  0
    2.0229    0.0000    1.3517 N   0  0  0  0  0  3           0  0  0
    2.7831   -0.7729    3.2912 N   0  0  0  0  0  3           0  0  0
   -4.2221    0.0472    0.0543 N   0  0  0  0  0  3           0  0  0
    2.7837    0.5972    3.3086 C   0  0  0  0  0  4           0  0  0
    2.3165   -1.1181    2.1082 C   0  0  0  0  0  4           0  0  0
    2.3079    1.1136    2.1174 C   0  0  0  0  0  4           0  0  0
   -2.8151    0.0346   -0.0004 C   0  0  0  0  0  4           0  0  0
   -7.8152   -1.9873   -1.3370 C   0  0  0  0  0  4           0  0  0
   -7.1242   -1.3154   -0.3043 C   0  0  0  0  0  4           0  0  0
    0.0000    0.0000    0.0000 C   0  0  0  0  0  4           0  0  0
   -2.1086    0.0153    1.2063 C   0  0  0  0  0  4           0  0  0
   -2.1114    0.0406   -1.2090 C   0  0  0  0  0  4           0  0  0
   -8.2740   -3.2989   -1.1109 C   0  0  0  0  0  4           0  0  0
   -6.9231   -1.9748    0.9228 C   0  0  0  0  0  4           0  0  0
   -0.7119    0.0000    1.2059 C   0  0  0  0  0  4           0  0  0
   -0.7134    0.0252   -1.2060 C   0  0  0  0  0  4           0  0  0
   -8.0697   -3.9330    0.1135 C   0  0  0  0  0  4           0  0  0
   -7.3959   -3.2698    1.1316 C   0  0  0  0  0  4           0  0  0
   -9.3429   -0.6165   -2.7488 C   0  0  0  0  0  4           0  0  0
   -5.1435    0.0667   -0.9817 C   0  0  0  0  0  4           0  0  0
    2.1218    2.5140    1.6744 C   0  0  0  0  0  4           0  0  0
    3.2734    4.2569    0.5927 C   0  0  0  0  0  4           0  0  0
    1.4983    0.0000    0.0000 C   0  0  0  0  0  4           0  0  0
    2.1391   -2.5200    1.6459 C   0  0  0  0  0  4           0  0  0
   -8.0549   -1.3820   -2.6882 C   0  0  0  0  0  4           0  0  0
   -6.5655    0.0745   -0.4625 C   0  0  0  0  0  4           0  0  0
    2.5499   -3.5378    2.7058 C   0  0  0  0  0  4           0  0  0
    2.3580   -4.9664    2.2059 C   0  0  0  0  0  4           0  0  0
    2.7662   -5.9843    3.2590 C   0  0  0  0  0  4           0  0  0
  1  9  1  0     0  0
  2 24  2  0     0  0
  3 25  2  0     0  0
  4 26  1  0     0  0
  4 27  1  0     0  0
  5 24  1  0     0  0
  6 10  1  0     0  0
  6 11  1  0     0  0
  6 28  1  0     0  0
  7  9  1  0     0  0
  7 10  2  0     0  0
  8 12  1  0     0  0
  8 25  1  0     0  0
  9 11  2  0     0  0
 10 29  1  0     0  0
 11 26  1  0     0  0
 12 16  2  0     0  0
 12 17  1  0     0  0
 13 14  1  0     0  0
 13 18  2  0     0  0
 13 30  1  0     0  0
 14 19  2  0     0  0
 14 31  1  0     0  0
 15 20  2  0     0  0
 15 21  1  0     0  0
 15 28  1  0     0  0
 16 20  1  0     0  0
 17 21  2  0     0  0
 18 22  1  0     0  0
 19 23  1  0     0  0
 22 23  2  0     0  0
 24 30  1  0     0  0
 25 31  1  0     0  0
 29 32  1  0     0  0
 32 33  1  0     0  0
 33 34  1  0     0  0
M  END
> <standard_type>
pIC50

> <# Confs.>
25

> <canonical_smiles>
O=C(CC1=CC=CC=C1CC(O)=O)NC2=CC=C(CN3C(COC)=C(Cl)N=C3CCCC)C=C2

> <standard_relation>
=

> <Publication_ID>
nan

> <predicted_activity_value>
5.1487416512809245

> <actual_activity_value>
5.552841968657781

> <Compound>
17

> <standard_units>
nM

> hash
15369469530252257554

$$$$
17_
XXILIB    08252103513D 0   0.00000     0.00000

 34 36  0     1  0            999 V2000
    3.3007   -1.4761    4.6752 Cl  0  0  0  0  0  1           0  0  0
   -9.4773    2.0907   -0.7886 O   0  0  0  0  0  2           0  0  0
   -4.8662    0.0949   -2.1788 O   0  0  0  0  0  2           0  0  0
    3.3921   -2.8894    1.0374 O   0  0  0  0  0  2           0  0  0
   -9.2816    3.5904   -2.4921 O   0  0  0  0  0  2           0  0  0
    2.0229    0.0000    1.3517 N   0  0  0  0  0  3           0  0  0
    2.7702    0.7729    3.2963 N   0  0  0  0  0  3           0  0  0
   -4.2221    0.0472    0.0543 N   0  0  0  0  0  3           0  0  0
    2.7814   -0.5972    3.3094 C   0  0  0  0  0  4           0  0  0
    2.3165    1.1181    2.1082 C   0  0  0  0  0  4           0  0  0
    2.3291   -1.1136    2.1092 C   0  0  0  0  0  4           0  0  0
   -2.8151    0.0346   -0.0004 C   0  0  0  0  0  4           0  0  0
   -8.2042    0.1283   -2.4345 C   0  0  0  0  0  4           0  0  0
   -7.5269   -0.5818   -1.4185 C   0  0  0  0  0  4           0  0  0
    0.0000    0.0000   -0.0000 C   0  0  0  0  0  4           0  0  0
   -2.1086    0.0153    1.2063 C   0  0  0  0  0  4           0  0  0
   -2.1114    0.0406   -1.2090 C   0  0  0  0  0  4           0  0  0
   -9.0598   -0.5739   -3.3045 C   0  0  0  0  0  4           0  0  0
   -7.7350   -1.9689   -1.3013 C   0  0  0  0  0  4           0  0  0
   -0.7119   -0.0000    1.2059 C   0  0  0  0  0  4           0  0  0
   -0.7134    0.0252   -1.2060 C   0  0  0  0  0  4           0  0  0
   -9.2570   -1.9471   -3.1687 C   0  0  0  0  0  4           0  0  0
   -8.5959   -2.6445   -2.1652 C   0  0  0  0  0  4           0  0  0
   -9.0046    2.4183   -1.8678 C   0  0  0  0  0  4           0  0  0
   -5.1435    0.0667   -0.9817 C   0  0  0  0  0  4           0  0  0
    2.1677   -2.5140    1.6566 C   0  0  0  0  0  4           0  0  0
    3.3490   -4.2282    0.5610 C   0  0  0  0  0  4           0  0  0
    1.4983    0.0000    0.0000 C   0  0  0  0  0  4           0  0  0
    2.1356    2.5200    1.6472 C   0  0  0  0  0  4           0  0  0
   -8.0279    1.6008   -2.6591 C   0  0  0  0  0  4           0  0  0
   -6.5655    0.0745   -0.4625 C   0  0  0  0  0  4           0  0  0
    3.3795    3.0691    0.9550 C   0  0  0  0  0  4           0  0  0
    3.1669    4.5074    0.4926 C   0  0  0  0  0  4           0  0  0
    4.4041    5.0589   -0.1980 C   0  0  0  0  0  4           0  0  0
  1  9  1  0     0  0
  2 24  2  0     0  0
  3 25  2  0     0  0
  4 26  1  0     0  0
  4 27  1  0     0  0
  5 24  1  0     0  0
  6 10  1  0     0  0
  6 11  1  0     0  0
  6 28  1  0     0  0
  7  9  1  0     0  0
  7 10  2  0     0  0
  8 12  1  0     0  0
  8 25  1  0     0  0
  9 11  2  0     0  0
 10 29  1  0     0  0
 11 26  1  0     0  0
 12 16  2  0     0  0
 12 17  1  0     0  0
 13 14  1  0     0  0
 13 18  2  0     0  0
 13 30  1  0     0  0
 14 19  2  0     0  0
 14 31  1  0     0  0
 15 20  2  0     0  0
 15 21  1  0     0  0
 15 28  1  0     0  0
 16 20  1  0     0  0
 17 21  2  0     0  0
 18 22  1  0     0  0
 19 23  1  0     0  0
 22 23  2  0     0  0
 24 30  1  0     0  0
 25 31  1  0     0  0
 29 32  1  0     0  0
 32 33  1  0     0  0
 33 34  1  0     0  0
M  END
> <standard_type>
pIC50

> <# Confs.>
25

> <canonical_smiles>
O=C(CC1=CC=CC=C1CC(O)=O)NC2=CC=C(CN3C(COC)=C(Cl)N=C3CCCC)C=C2

> <standard_relation>
=

> <Publication_ID>
nan

> <predicted_activity_value>
5.1487416512809245

> <actual_activity_value>
5.552841968657781

> <Compound>
17

> <standard_units>
nM

> hash
15369469530252257554

$$$$
17_
XXILIB    08252103513D 0   0.00000     0.00000

 34 36  0     1  0            999 V2000
    3.3007   -1.4761    4.6752 Cl  0  0  0  0  0  1           0  0  0
  -10.1096    0.8251   -1.7714 O   0  0  0  0  0  2           0  0  0
   -4.8662    0.0949   -2.1788 O   0  0  0  0  0  2           0  0  0
    3.3921   -2.8894    1.0374 O   0  0  0  0  0  2           0  0  0
   -9.5524    0.5333   -3.9608 O   0  0  0  0  0  2           0  0  0
    2.0229    0.0000    1.3517 N   0  0  0  0  0  3           0  0  0
    2.7702    0.7729    3.2963 N   0  0  0  0  0  3           0  0  0
   -4.2221    0.0472    0.0543 N   0  0  0  0  0  3           0  0  0
    2.7814   -0.5972    3.3094 C   0  0  0  0  0  4           0  0  0
    2.3165    1.1181    2.1082 C   0  0  0  0  0  4           0  0  0
    2.3291   -1.1136    2.1092 C   0  0  0  0  0  4           0  0  0
   -2.8151    0.0346   -0.0004 C   0  0  0  0  0  4           0  0  0
   -7.7504    2.2182   -1.2226 C   0  0  0  0  0  4           0  0  0
   -7.0812    1.4702   -0.2285 C   0  0  0  0  0  4           0  0  0
    0.0000    0.0000    0.0000 C   0  0  0  0  0  4           0  0  0
   -2.1086    0.0153    1.2063 C   0  0  0  0  0  4           0  0  0
   -2.1114    0.0406   -1.2090 C   0  0  0  0  0  4           0  0  0
   -8.2280    3.5037   -0.9044 C   0  0  0  0  0  4           0  0  0
   -6.9047    2.0367    1.0478 C   0  0  0  0  0  4           0  0  0
   -0.7119    0.0000    1.2059 C   0  0  0  0  0  4           0  0  0
   -0.7134    0.0252   -1.2060 C   0  0  0  0  0  4           0  0  0
   -8.0385    4.0495    0.3641 C   0  0  0  0  0  4           0  0  0
   -7.3745    3.3165    1.3399 C   0  0  0  0  0  4           0  0  0
   -9.3265    0.9758   -2.6985 C   0  0  0  0  0  4           0  0  0
   -5.1435    0.0667   -0.9817 C   0  0  0  0  0  4           0  0  0
    2.1677   -2.5140    1.6566 C   0  0  0  0  0  4           0  0  0
    3.3490   -4.2282    0.5610 C   0  0  0  0  0  4           0  0  0
    1.4983    0.0000    0.0000 C   0  0  0  0  0  4           0  0  0
    2.1356    2.5200    1.6472 C   0  0  0  0  0  4           0  0  0
   -8.0129    1.6925   -2.6027 C   0  0  0  0  0  4           0  0  0
   -6.5655    0.0745   -0.4625 C   0  0  0  0  0  4           0  0  0
    2.5473    3.5378    2.7067 C   0  0  0  0  0  4           0  0  0
    2.3518    4.9664    2.2083 C   0  0  0  0  0  4           0  0  0
    2.7609    5.9843    3.2610 C   0  0  0  0  0  4           0  0  0
  1  9  1  0     0  0
  2 24  2  0     0  0
  3 25  2  0     0  0
  4 26  1  0     0  0
  4 27  1  0     0  0
  5 24  1  0     0  0
  6 10  1  0     0  0
  6 11  1  0     0  0
  6 28  1  0     0  0
  7  9  1  0     0  0
  7 10  2  0     0  0
  8 12  1  0     0  0
  8 25  1  0     0  0
  9 11  2  0     0  0
 10 29  1  0     0  0
 11 26  1  0     0  0
 12 16  2  0     0  0
 12 17  1  0     0  0
 13 14  1  0     0  0
 13 18  2  0     0  0
 13 30  1  0     0  0
 14 19  2  0     0  0
 14 31  1  0     0  0
 15 20  2  0     0  0
 15 21  1  0     0  0
 15 28  1  0     0  0
 16 20  1  0     0  0
 17 21  2  0     0  0
 18 22  1  0     0  0
 19 23  1  0     0  0
 22 23  2  0     0  0
 24 30  1  0     0  0
 25 31  1  0     0  0
 29 32  1  0     0  0
 32 33  1  0     0  0
 33 34  1  0     0  0
M  END
> <standard_type>
pIC50

> <# Confs.>
25

> <canonical_smiles>
O=C(CC1=CC=CC=C1CC(O)=O)NC2=CC=C(CN3C(COC)=C(Cl)N=C3CCCC)C=C2

> <standard_relation>
=

> <Publication_ID>
nan

> <predicted_activity_value>
5.1487416512809245

> <actual_activity_value>
5.552841968657781

> <Compound>
17

> <standard_units>
nM

> hash
15369469530252257554

$$$$
17_
XXILIB    08252103513D 0   0.00000     0.00000

 34 36  0     1  0            999 V2000
    3.3217    1.4761    4.6670 Cl  0  0  0  0  0  1           0  0  0
  -10.1096    0.8251   -1.7714 O   0  0  0  0  0  2           0  0  0
   -4.8662    0.0949   -2.1788 O   0  0  0  0  0  2           0  0  0
    3.3401    2.9158    1.0597 O   0  0  0  0  0  2           0  0  0
   -9.5524    0.5333   -3.9608 O   0  0  0  0  0  2           0  0  0
    2.0229    0.0000    1.3517 N   0  0  0  0  0  3           0  0  0
    2.7831   -0.7729    3.2912 N   0  0  0  0  0  3           0  0  0
   -4.2221    0.0472    0.0543 N   0  0  0  0  0  3           0  0  0
    2.7837    0.5972    3.3086 C   0  0  0  0  0  4           0  0  0
    2.3165   -1.1181    2.1082 C   0  0  0  0  0  4           0  0  0
    2.3079    1.1136    2.1174 C   0  0  0  0  0  4           0  0  0
   -2.8151    0.0346   -0.0004 C   0  0  0  0  0  4           0  0  0
   -7.7504    2.2182   -1.2226 C   0  0  0  0  0  4           0  0  0
   -7.0812    1.4702   -0.2285 C   0  0  0  0  0  4           0  0  0
    0.0000    0.0000    0.0000 C   0  0  0  0  0  4           0  0  0
   -2.1086    0.0153    1.2063 C   0  0  0  0  0  4           0  0  0
   -2.1114    0.0406   -1.2090 C   0  0  0  0  0  4           0  0  0
   -8.2280    3.5037   -0.9044 C   0  0  0  0  0  4           0  0  0
   -6.9047    2.0367    1.0478 C   0  0  0  0  0  4           0  0  0
   -0.7119    0.0000    1.2059 C   0  0  0  0  0  4           0  0  0
   -0.7134    0.0252   -1.2060 C   0  0  0  0  0  4           0  0  0
   -8.0385    4.0495    0.3641 C   0  0  0  0  0  4           0  0  0
   -7.3745    3.3165    1.3399 C   0  0  0  0  0  4           0  0  0
   -9.3265    0.9758   -2.6985 C   0  0  0  0  0  4           0  0  0
   -5.1435    0.0667   -0.9817 C   0  0  0  0  0  4           0  0  0
    2.1218    2.5140    1.6744 C   0  0  0  0  0  4           0  0  0
    3.2734    4.2569    0.5927 C   0  0  0  0  0  4           0  0  0
    1.4983    0.0000    0.0000 C   0  0  0  0  0  4           0  0  0
    2.1391   -2.5200    1.6459 C   0  0  0  0  0  4           0  0  0
   -8.0129    1.6925   -2.6027 C   0  0  0  0  0  4           0  0  0
   -6.5655    0.0745   -0.4625 C   0  0  0  0  0  4           0  0  0
    2.5499   -3.5378    2.7058 C   0  0  0  0  0  4           0  0  0
    2.3580   -4.9664    2.2059 C   0  0  0  0  0  4           0  0  0
    2.7662   -5.9843    3.2590 C   0  0  0  0  0  4           0  0  0
  1  9  1  0     0  0
  2 24  2  0     0  0
  3 25  2  0     0  0
  4 26  1  0     0  0
  4 27  1  0     0  0
  5 24  1  0     0  0
  6 10  1  0     0  0
  6 11  1  0     0  0
  6 28  1  0     0  0
  7  9  1  0     0  0
  7 10  2  0     0  0
  8 12  1  0     0  0
  8 25  1  0     0  0
  9 11  2  0     0  0
 10 29  1  0     0  0
 11 26  1  0     0  0
 12 16  2  0     0  0
 12 17  1  0     0  0
 13 14  1  0     0  0
 13 18  2  0     0  0
 13 30  1  0     0  0
 14 19  2  0     0  0
 14 31  1  0     0  0
 15 20  2  0     0  0
 15 21  1  0     0  0
 15 28  1  0     0  0
 16 20  1  0     0  0
 17 21  2  0     0  0
 18 22  1  0     0  0
 19 23  1  0     0  0
 22 23  2  0     0  0
 24 30  1  0     0  0
 25 31  1  0     0  0
 29 32  1  0     0  0
 32 33  1  0     0  0
 33 34  1  0     0  0
M  END
> <standard_type>
pIC50

> <# Confs.>
25

> <canonical_smiles>
O=C(CC1=CC=CC=C1CC(O)=O)NC2=CC=C(CN3C(COC)=C(Cl)N=C3CCCC)C=C2

> <standard_relation>
=

> <Publication_ID>
nan

> <predicted_activity_value>
5.1487416512809245

> <actual_activity_value>
5.552841968657781

> <Compound>
17

> <standard_units>
nM

> hash
15369469530252257554

$$$$
17_
XXILIB    08252103513D 0   0.00000     0.00000

 34 36  0     1  0            999 V2000
    3.3217    1.4761    4.6670 Cl  0  0  0  0  0  1           0  0  0
   -9.4773    2.0907   -0.7886 O   0  0  0  0  0  2           0  0  0
   -4.8662    0.0949   -2.1788 O   0  0  0  0  0  2           0  0  0
    3.3401    2.9158    1.0597 O   0  0  0  0  0  2           0  0  0
   -9.2816    3.5904   -2.4921 O   0  0  0  0  0  2           0  0  0
    2.0229    0.0000    1.3517 N   0  0  0  0  0  3           0  0  0
    2.7831   -0.7729    3.2912 N   0  0  0  0  0  3           0  0  0
   -4.2221    0.0472    0.0543 N   0  0  0  0  0  3           0  0  0
    2.7837    0.5972    3.3086 C   0  0  0  0  0  4           0  0  0
    2.3165   -1.1181    2.1082 C   0  0  0  0  0  4           0  0  0
    2.3079    1.1136    2.1174 C   0  0  0  0  0  4           0  0  0
   -2.8151    0.0346   -0.0004 C   0  0  0  0  0  4           0  0  0
   -8.2042    0.1283   -2.4345 C   0  0  0  0  0  4           0  0  0
   -7.5269   -0.5818   -1.4185 C   0  0  0  0  0  4           0  0  0
    0.0000    0.0000   -0.0000 C   0  0  0  0  0  4           0  0  0
   -2.1086    0.0153    1.2063 C   0  0  0  0  0  4           0  0  0
   -2.1114    0.0406   -1.2090 C   0  0  0  0  0  4           0  0  0
   -9.0598   -0.5739   -3.3045 C   0  0  0  0  0  4           0  0  0
   -7.7350   -1.9689   -1.3013 C   0  0  0  0  0  4           0  0  0
   -0.7119   -0.0000    1.2059 C   0  0  0  0  0  4           0  0  0
   -0.7134    0.0252   -1.2060 C   0  0  0  0  0  4           0  0  0
   -9.2570   -1.9471   -3.1687 C   0  0  0  0  0  4           0  0  0
   -8.5959   -2.6445   -2.1652 C   0  0  0  0  0  4           0  0  0
   -9.0046    2.4183   -1.8678 C   0  0  0  0  0  4           0  0  0
   -5.1435    0.0667   -0.9817 C   0  0  0  0  0  4           0  0  0
    2.1218    2.5140    1.6744 C   0  0  0  0  0  4           0  0  0
    3.2734    4.2569    0.5927 C   0  0  0  0  0  4           0  0  0
    1.4983    0.0000    0.0000 C   0  0  0  0  0  4           0  0  0
    2.1391   -2.5200    1.6459 C   0  0  0  0  0  4           0  0  0
   -8.0279    1.6008   -2.6591 C   0  0  0  0  0  4           0  0  0
   -6.5655    0.0745   -0.4625 C   0  0  0  0  0  4           0  0  0
    3.3856   -3.0666    0.9564 C   0  0  0  0  0  4           0  0  0
    3.1765   -4.5049    0.4925 C   0  0  0  0  0  4           0  0  0
    4.4163   -5.0539   -0.1954 C   0  0  0  0  0  4           0  0  0
  1  9  1  0     0  0
  2 24  2  0     0  0
  3 25  2  0     0  0
  4 26  1  0     0  0
  4 27  1  0     0  0
  5 24  1  0     0  0
  6 10  1  0     0  0
  6 11  1  0     0  0
  6 28  1  0     0  0
  7  9  1  0     0  0
  7 10  2  0     0  0
  8 12  1  0     0  0
  8 25  1  0     0  0
  9 11  2  0     0  0
 10 29  1  0     0  0
 11 26  1  0     0  0
 12 16  2  0     0  0
 12 17  1  0     0  0
 13 14  1  0     0  0
 13 18  2  0     0  0
 13 30  1  0     0  0
 14 19  2  0     0  0
 14 31  1  0     0  0
 15 20  2  0     0  0
 15 21  1  0     0  0
 15 28  1  0     0  0
 16 20  1  0     0  0
 17 21  2  0     0  0
 18 22  1  0     0  0
 19 23  1  0     0  0
 22 23  2  0     0  0
 24 30  1  0     0  0
 25 31  1  0     0  0
 29 32  1  0     0  0
 32 33  1  0     0  0
 33 34  1  0     0  0
M  END
> <standard_type>
pIC50

> <# Confs.>
25

> <canonical_smiles>
O=C(CC1=CC=CC=C1CC(O)=O)NC2=CC=C(CN3C(COC)=C(Cl)N=C3CCCC)C=C2

> <standard_relation>
=

> <Publication_ID>
nan

> <predicted_activity_value>
5.1487416512809245

> <actual_activity_value>
5.552841968657781

> <Compound>
17

> <standard_units>
nM

> hash
15369469530252257554

$$$$
17_
XXILIB    08252103513D 0   0.00000     0.00000

 34 36  0     1  0            999 V2000
    3.3007   -1.4761    4.6752 Cl  0  0  0  0  0  1           0  0  0
  -10.1234   -0.4873   -1.8163 O   0  0  0  0  0  2           0  0  0
   -4.8662    0.0949   -2.1788 O   0  0  0  0  0  2           0  0  0
    3.3921   -2.8894    1.0374 O   0  0  0  0  0  2           0  0  0
   -9.5237   -0.0576   -3.9715 O   0  0  0  0  0  2           0  0  0
    2.0229    0.0000    1.3517 N   0  0  0  0  0  3           0  0  0
    2.7702    0.7729    3.2963 N   0  0  0  0  0  3           0  0  0
   -4.2221    0.0472    0.0543 N   0  0  0  0  0  3           0  0  0
    2.7814   -0.5972    3.3094 C   0  0  0  0  0  4           0  0  0
    2.3165    1.1181    2.1082 C   0  0  0  0  0  4           0  0  0
    2.3291   -1.1136    2.1092 C   0  0  0  0  0  4           0  0  0
   -2.8151    0.0346   -0.0004 C   0  0  0  0  0  4           0  0  0
   -7.8152   -1.9873   -1.3370 C   0  0  0  0  0  4           0  0  0
   -7.1242   -1.3154   -0.3043 C   0  0  0  0  0  4           0  0  0
    0.0000    0.0000    0.0000 C   0  0  0  0  0  4           0  0  0
   -2.1086    0.0153    1.2063 C   0  0  0  0  0  4           0  0  0
   -2.1114    0.0406   -1.2090 C   0  0  0  0  0  4           0  0  0
   -8.2740   -3.2989   -1.1109 C   0  0  0  0  0  4           0  0  0
   -6.9231   -1.9748    0.9228 C   0  0  0  0  0  4           0  0  0
   -0.7119    0.0000    1.2059 C   0  0  0  0  0  4           0  0  0
   -0.7134    0.0252   -1.2060 C   0  0  0  0  0  4           0  0  0
   -8.0697   -3.9330    0.1135 C   0  0  0  0  0  4           0  0  0
   -7.3959   -3.2698    1.1316 C   0  0  0  0  0  4           0  0  0
   -9.3429   -0.6165   -2.7488 C   0  0  0  0  0  4           0  0  0
   -5.1435    0.0667   -0.9817 C   0  0  0  0  0  4           0  0  0
    2.1677   -2.5140    1.6566 C   0  0  0  0  0  4           0  0  0
    3.3490   -4.2282    0.5610 C   0  0  0  0  0  4           0  0  0
    1.4983    0.0000    0.0000 C   0  0  0  0  0  4           0  0  0
    2.1356    2.5200    1.6472 C   0  0  0  0  0  4           0  0  0
   -8.0549   -1.3820   -2.6882 C   0  0  0  0  0  4           0  0  0
   -6.5655    0.0745   -0.4625 C   0  0  0  0  0  4           0  0  0
    3.3795    3.0691    0.9550 C   0  0  0  0  0  4           0  0  0
    4.5843    3.0591    1.8910 C   0  0  0  0  0  4           0  0  0
    5.8265    3.6055    1.2053 C   0  0  0  0  0  4           0  0  0
  1  9  1  0     0  0
  2 24  2  0     0  0
  3 25  2  0     0  0
  4 26  1  0     0  0
  4 27  1  0     0  0
  5 24  1  0     0  0
  6 10  1  0     0  0
  6 11  1  0     0  0
  6 28  1  0     0  0
  7  9  1  0     0  0
  7 10  2  0     0  0
  8 12  1  0     0  0
  8 25  1  0     0  0
  9 11  2  0     0  0
 10 29  1  0     0  0
 11 26  1  0     0  0
 12 16  2  0     0  0
 12 17  1  0     0  0
 13 14  1  0     0  0
 13 18  2  0     0  0
 13 30  1  0     0  0
 14 19  2  0     0  0
 14 31  1  0     0  0
 15 20  2  0     0  0
 15 21  1  0     0  0
 15 28  1  0     0  0
 16 20  1  0     0  0
 17 21  2  0     0  0
 18 22  1  0     0  0
 19 23  1  0     0  0
 22 23  2  0     0  0
 24 30  1  0     0  0
 25 31  1  0     0  0
 29 32  1  0     0  0
 32 33  1  0     0  0
 33 34  1  0     0  0
M  END
> <standard_type>
pIC50

> <# Confs.>
25

> <canonical_smiles>
O=C(CC1=CC=CC=C1CC(O)=O)NC2=CC=C(CN3C(COC)=C(Cl)N=C3CCCC)C=C2

> <standard_relation>
=

> <Publication_ID>
nan

> <predicted_activity_value>
5.1487416512809245

> <actual_activity_value>
5.552841968657781

> <Compound>
17

> <standard_units>
nM

> hash
15369469530252257554

$$$$
17_
XXILIB    08252103513D 0   0.00000     0.00000

 34 36  0     1  0            999 V2000
    3.3007   -1.4761    4.6752 Cl  0  0  0  0  0  1           0  0  0
   -6.2609   -2.6987   -3.6303 O   0  0  0  0  0  2           0  0  0
   -4.8662    0.0949   -2.1788 O   0  0  0  0  0  2           0  0  0
    3.3921   -2.8894    1.0374 O   0  0  0  0  0  2           0  0  0
   -6.8223   -0.7061   -4.5809 O   0  0  0  0  0  2           0  0  0
    2.0229    0.0000    1.3517 N   0  0  0  0  0  3           0  0  0
    2.7702    0.7729    3.2963 N   0  0  0  0  0  3           0  0  0
   -4.2221    0.0472    0.0543 N   0  0  0  0  0  3           0  0  0
    2.7814   -0.5972    3.3094 C   0  0  0  0  0  4           0  0  0
    2.3165    1.1181    2.1082 C   0  0  0  0  0  4           0  0  0
    2.3291   -1.1136    2.1092 C   0  0  0  0  0  4           0  0  0
   -2.8151    0.0346   -0.0004 C   0  0  0  0  0  4           0  0  0
   -7.8152   -1.9873   -1.3370 C   0  0  0  0  0  4           0  0  0
   -7.1242   -1.3154   -0.3043 C   0  0  0  0  0  4           0  0  0
    0.0000    0.0000    0.0000 C   0  0  0  0  0  4           0  0  0
   -2.1086    0.0153    1.2063 C   0  0  0  0  0  4           0  0  0
   -2.1114    0.0406   -1.2090 C   0  0  0  0  0  4           0  0  0
   -8.2740   -3.2989   -1.1109 C   0  0  0  0  0  4           0  0  0
   -6.9231   -1.9748    0.9228 C   0  0  0  0  0  4           0  0  0
   -0.7119    0.0000    1.2059 C   0  0  0  0  0  4           0  0  0
   -0.7134    0.0252   -1.2060 C   0  0  0  0  0  4           0  0  0
   -8.0697   -3.9330    0.1135 C   0  0  0  0  0  4           0  0  0
   -7.3959   -3.2698    1.1316 C   0  0  0  0  0  4           0  0  0
   -6.9489   -1.6879   -3.6535 C   0  0  0  0  0  4           0  0  0
   -5.1435    0.0667   -0.9817 C   0  0  0  0  0  4           0  0  0
    2.1677   -2.5140    1.6566 C   0  0  0  0  0  4           0  0  0
    3.3490   -4.2282    0.5610 C   0  0  0  0  0  4           0  0  0
    1.4983    0.0000    0.0000 C   0  0  0  0  0  4           0  0  0
    2.1356    2.5200    1.6472 C   0  0  0  0  0  4           0  0  0
   -8.0549   -1.3820   -2.6882 C   0  0  0  0  0  4           0  0  0
   -6.5655    0.0745   -0.4625 C   0  0  0  0  0  4           0  0  0
    3.3795    3.0691    0.9550 C   0  0  0  0  0  4           0  0  0
    3.1669    4.5074    0.4926 C   0  0  0  0  0  4           0  0  0
    4.4041    5.0589   -0.1980 C   0  0  0  0  0  4           0  0  0
  1  9  1  0     0  0
  2 24  2  0     0  0
  3 25  2  0     0  0
  4 26  1  0     0  0
  4 27  1  0     0  0
  5 24  1  0     0  0
  6 10  1  0     0  0
  6 11  1  0     0  0
  6 28  1  0     0  0
  7  9  1  0     0  0
  7 10  2  0     0  0
  8 12  1  0     0  0
  8 25  1  0     0  0
  9 11  2  0     0  0
 10 29  1  0     0  0
 11 26  1  0     0  0
 12 16  2  0     0  0
 12 17  1  0     0  0
 13 14  1  0     0  0
 13 18  2  0     0  0
 13 30  1  0     0  0
 14 19  2  0     0  0
 14 31  1  0     0  0
 15 20  2  0     0  0
 15 21  1  0     0  0
 15 28  1  0     0  0
 16 20  1  0     0  0
 17 21  2  0     0  0
 18 22  1  0     0  0
 19 23  1  0     0  0
 22 23  2  0     0  0
 24 30  1  0     0  0
 25 31  1  0     0  0
 29 32  1  0     0  0
 32 33  1  0     0  0
 33 34  1  0     0  0
M  END
> <standard_type>
pIC50

> <# Confs.>
25

> <canonical_smiles>
O=C(CC1=CC=CC=C1CC(O)=O)NC2=CC=C(CN3C(COC)=C(Cl)N=C3CCCC)C=C2

> <standard_relation>
=

> <Publication_ID>
nan

> <predicted_activity_value>
5.1487416512809245

> <actual_activity_value>
5.552841968657781

> <Compound>
17

> <standard_units>
nM

> hash
15369469530252257554

$$$$
17_
XXILIB    08252103513D 0   0.00000     0.00000

 34 36  0     1  0            999 V2000
    3.3007    1.4761   -4.6752 Cl  0  0  0  0  0  1           0  0  0
   -9.8603    0.3694   -1.7804 O   0  0  0  0  0  2           0  0  0
   -4.8662    0.0949   -2.1788 O   0  0  0  0  0  2           0  0  0
    3.3921    2.8894   -1.0374 O   0  0  0  0  0  2           0  0  0
   -9.8672    1.1069   -3.9357 O   0  0  0  0  0  2           0  0  0
    2.0229    0.0000   -1.3517 N   0  0  0  0  0  3           0  0  0
    2.7702   -0.7729   -3.2963 N   0  0  0  0  0  3           0  0  0
   -4.2221    0.0472    0.0543 N   0  0  0  0  0  3           0  0  0
    2.7814    0.5972   -3.3094 C   0  0  0  0  0  4           0  0  0
    2.3165   -1.1181   -2.1082 C   0  0  0  0  0  4           0  0  0
    2.3291    1.1136   -2.1092 C   0  0  0  0  0  4           0  0  0
   -2.8151    0.0346   -0.0004 C   0  0  0  0  0  4           0  0  0
   -7.7504    2.2182   -1.2226 C   0  0  0  0  0  4           0  0  0
   -7.0812    1.4702   -0.2285 C   0  0  0  0  0  4           0  0  0
    0.0000    0.0000    0.0000 C   0  0  0  0  0  4           0  0  0
   -2.1086    0.0153    1.2063 C   0  0  0  0  0  4           0  0  0
   -2.1114    0.0406   -1.2090 C   0  0  0  0  0  4           0  0  0
   -8.2280    3.5037   -0.9044 C   0  0  0  0  0  4           0  0  0
   -6.9047    2.0367    1.0478 C   0  0  0  0  0  4           0  0  0
   -0.7119    0.0000    1.2059 C   0  0  0  0  0  4           0  0  0
   -0.7134    0.0252   -1.2060 C   0  0  0  0  0  4           0  0  0
   -8.0385    4.0495    0.3641 C   0  0  0  0  0  4           0  0  0
   -7.3745    3.3165    1.3399 C   0  0  0  0  0  4           0  0  0
   -9.3265    0.9758   -2.6985 C   0  0  0  0  0  4           0  0  0
   -5.1435    0.0667   -0.9817 C   0  0  0  0  0  4           0  0  0
    2.1677    2.5140   -1.6566 C   0  0  0  0  0  4           0  0  0
    3.3490    4.2282   -0.5610 C   0  0  0  0  0  4           0  0  0
    1.4983   -0.0000   -0.0000 C   0  0  0  0  0  4           0  0  0
    2.1356   -2.5200   -1.6472 C   0  0  0  0  0  4           0  0  0
   -8.0129    1.6925   -2.6027 C   0  0  0  0  0  4           0  0  0
   -6.5655    0.0745   -0.4625 C   0  0  0  0  0  4           0  0  0
    3.3795   -3.0691   -0.9550 C   0  0  0  0  0  4           0  0  0
    3.1669   -4.5074   -0.4926 C   0  0  0  0  0  4           0  0  0
    4.4041   -5.0589    0.1980 C   0  0  0  0  0  4           0  0  0
  1  9  1  0     0  0
  2 24  2  0     0  0
  3 25  2  0     0  0
  4 26  1  0     0  0
  4 27  1  0     0  0
  5 24  1  0     0  0
  6 10  1  0     0  0
  6 11  1  0     0  0
  6 28  1  0     0  0
  7  9  1  0     0  0
  7 10  2  0     0  0
  8 12  1  0     0  0
  8 25  1  0     0  0
  9 11  2  0     0  0
 10 29  1  0     0  0
 11 26  1  0     0  0
 12 16  2  0     0  0
 12 17  1  0     0  0
 13 14  1  0     0  0
 13 18  2  0     0  0
 13 30  1  0     0  0
 14 19  2  0     0  0
 14 31  1  0     0  0
 15 20  2  0     0  0
 15 21  1  0     0  0
 15 28  1  0     0  0
 16 20  1  0     0  0
 17 21  2  0     0  0
 18 22  1  0     0  0
 19 23  1  0     0  0
 22 23  2  0     0  0
 24 30  1  0     0  0
 25 31  1  0     0  0
 29 32  1  0     0  0
 32 33  1  0     0  0
 33 34  1  0     0  0
M  END
> <standard_type>
pIC50

> <# Confs.>
25

> <canonical_smiles>
O=C(CC1=CC=CC=C1CC(O)=O)NC2=CC=C(CN3C(COC)=C(Cl)N=C3CCCC)C=C2

> <standard_relation>
=

> <Publication_ID>
nan

> <predicted_activity_value>
5.1487416512809245

> <actual_activity_value>
5.552841968657781

> <Compound>
17

> <standard_units>
nM

> hash
15369469530252257554

$$$$
17_
XXILIB    08252103513D 0   0.00000     0.00000

 34 36  0     1  0            999 V2000
    3.3217   -1.4761   -4.6670 Cl  0  0  0  0  0  1           0  0  0
   -9.8603    0.3694   -1.7804 O   0  0  0  0  0  2           0  0  0
   -4.8662    0.0949   -2.1788 O   0  0  0  0  0  2           0  0  0
    3.3401   -2.9158   -1.0597 O   0  0  0  0  0  2           0  0  0
   -9.8672    1.1069   -3.9357 O   0  0  0  0  0  2           0  0  0
    2.0229    0.0000   -1.3517 N   0  0  0  0  0  3           0  0  0
    2.7831    0.7729   -3.2912 N   0  0  0  0  0  3           0  0  0
   -4.2221    0.0472    0.0543 N   0  0  0  0  0  3           0  0  0
    2.7837   -0.5972   -3.3086 C   0  0  0  0  0  4           0  0  0
    2.3165    1.1181   -2.1082 C   0  0  0  0  0  4           0  0  0
    2.3079   -1.1136   -2.1174 C   0  0  0  0  0  4           0  0  0
   -2.8151    0.0346   -0.0004 C   0  0  0  0  0  4           0  0  0
   -7.7504    2.2182   -1.2226 C   0  0  0  0  0  4           0  0  0
   -7.0812    1.4702   -0.2285 C   0  0  0  0  0  4           0  0  0
    0.0000    0.0000    0.0000 C   0  0  0  0  0  4           0  0  0
   -2.1086    0.0153    1.2063 C   0  0  0  0  0  4           0  0  0
   -2.1114    0.0406   -1.2090 C   0  0  0  0  0  4           0  0  0
   -8.2280    3.5037   -0.9044 C   0  0  0  0  0  4           0  0  0
   -6.9047    2.0367    1.0478 C   0  0  0  0  0  4           0  0  0
   -0.7119    0.0000    1.2059 C   0  0  0  0  0  4           0  0  0
   -0.7134    0.0252   -1.2060 C   0  0  0  0  0  4           0  0  0
   -8.0385    4.0495    0.3641 C   0  0  0  0  0  4           0  0  0
   -7.3745    3.3165    1.3399 C   0  0  0  0  0  4           0  0  0
   -9.3265    0.9758   -2.6985 C   0  0  0  0  0  4           0  0  0
   -5.1435    0.0667   -0.9817 C   0  0  0  0  0  4           0  0  0
    2.1218   -2.5140   -1.6744 C   0  0  0  0  0  4           0  0  0
    3.2734   -4.2569   -0.5927 C   0  0  0  0  0  4           0  0  0
    1.4983   -0.0000   -0.0000 C   0  0  0  0  0  4           0  0  0
    2.1391    2.5200   -1.6459 C   0  0  0  0  0  4           0  0  0
   -8.0129    1.6925   -2.6027 C   0  0  0  0  0  4           0  0  0
   -6.5655    0.0745   -0.4625 C   0  0  0  0  0  4           0  0  0
    3.3856    3.0666   -0.9564 C   0  0  0  0  0  4           0  0  0
    3.1765    4.5049   -0.4925 C   0  0  0  0  0  4           0  0  0
    4.4163    5.0539    0.1954 C   0  0  0  0  0  4           0  0  0
  1  9  1  0     0  0
  2 24  2  0     0  0
  3 25  2  0     0  0
  4 26  1  0     0  0
  4 27  1  0     0  0
  5 24  1  0     0  0
  6 10  1  0     0  0
  6 11  1  0     0  0
  6 28  1  0     0  0
  7  9  1  0     0  0
  7 10  2  0     0  0
  8 12  1  0     0  0
  8 25  1  0     0  0
  9 11  2  0     0  0
 10 29  1  0     0  0
 11 26  1  0     0  0
 12 16  2  0     0  0
 12 17  1  0     0  0
 13 14  1  0     0  0
 13 18  2  0     0  0
 13 30  1  0     0  0
 14 19  2  0     0  0
 14 31  1  0     0  0
 15 20  2  0     0  0
 15 21  1  0     0  0
 15 28  1  0     0  0
 16 20  1  0     0  0
 17 21  2  0     0  0
 18 22  1  0     0  0
 19 23  1  0     0  0
 22 23  2  0     0  0
 24 30  1  0     0  0
 25 31  1  0     0  0
 29 32  1  0     0  0
 32 33  1  0     0  0
 33 34  1  0     0  0
M  END
> <standard_type>
pIC50

> <# Confs.>
25

> <canonical_smiles>
O=C(CC1=CC=CC=C1CC(O)=O)NC2=CC=C(CN3C(COC)=C(Cl)N=C3CCCC)C=C2

> <standard_relation>
=

> <Publication_ID>
nan

> <predicted_activity_value>
5.1487416512809245

> <actual_activity_value>
5.552841968657781

> <Compound>
17

> <standard_units>
nM

> hash
15369469530252257554

$$$$
17_
XXILIB    08252103513D 0   0.00000     0.00000

 34 36  0     1  0            999 V2000
    3.3217    1.4761    4.6670 Cl  0  0  0  0  0  1           0  0  0
   -6.2609   -2.6987   -3.6303 O   0  0  0  0  0  2           0  0  0
   -4.8662    0.0949   -2.1788 O   0  0  0  0  0  2           0  0  0
    3.3401    2.9158    1.0597 O   0  0  0  0  0  2           0  0  0
   -6.8223   -0.7061   -4.5809 O   0  0  0  0  0  2           0  0  0
    2.0229    0.0000    1.3517 N   0  0  0  0  0  3           0  0  0
    2.7831   -0.7729    3.2912 N   0  0  0  0  0  3           0  0  0
   -4.2221    0.0472    0.0543 N   0  0  0  0  0  3           0  0  0
    2.7837    0.5972    3.3086 C   0  0  0  0  0  4           0  0  0
    2.3165   -1.1181    2.1082 C   0  0  0  0  0  4           0  0  0
    2.3079    1.1136    2.1174 C   0  0  0  0  0  4           0  0  0
   -2.8151    0.0346   -0.0004 C   0  0  0  0  0  4           0  0  0
   -7.8152   -1.9873   -1.3370 C   0  0  0  0  0  4           0  0  0
   -7.1242   -1.3154   -0.3043 C   0  0  0  0  0  4           0  0  0
    0.0000    0.0000    0.0000 C   0  0  0  0  0  4           0  0  0
   -2.1086    0.0153    1.2063 C   0  0  0  0  0  4           0  0  0
   -2.1114    0.0406   -1.2090 C   0  0  0  0  0  4           0  0  0
   -8.2740   -3.2989   -1.1109 C   0  0  0  0  0  4           0  0  0
   -6.9231   -1.9748    0.9228 C   0  0  0  0  0  4           0  0  0
   -0.7119    0.0000    1.2059 C   0  0  0  0  0  4           0  0  0
   -0.7134    0.0252   -1.2060 C   0  0  0  0  0  4           0  0  0
   -8.0697   -3.9330    0.1135 C   0  0  0  0  0  4           0  0  0
   -7.3959   -3.2698    1.1316 C   0  0  0  0  0  4           0  0  0
   -6.9489   -1.6879   -3.6535 C   0  0  0  0  0  4           0  0  0
   -5.1435    0.0667   -0.9817 C   0  0  0  0  0  4           0  0  0
    2.1218    2.5140    1.6744 C   0  0  0  0  0  4           0  0  0
    3.2734    4.2569    0.5927 C   0  0  0  0  0  4           0  0  0
    1.4983    0.0000    0.0000 C   0  0  0  0  0  4           0  0  0
    2.1391   -2.5200    1.6459 C   0  0  0  0  0  4           0  0  0
   -8.0549   -1.3820   -2.6882 C   0  0  0  0  0  4           0  0  0
   -6.5655    0.0745   -0.4625 C   0  0  0  0  0  4           0  0  0
    3.3856   -3.0666    0.9564 C   0  0  0  0  0  4           0  0  0
    3.1765   -4.5049    0.4925 C   0  0  0  0  0  4           0  0  0
    4.4163   -5.0539   -0.1954 C   0  0  0  0  0  4           0  0  0
  1  9  1  0     0  0
  2 24  2  0     0  0
  3 25  2  0     0  0
  4 26  1  0     0  0
  4 27  1  0     0  0
  5 24  1  0     0  0
  6 10  1  0     0  0
  6 11  1  0     0  0
  6 28  1  0     0  0
  7  9  1  0     0  0
  7 10  2  0     0  0
  8 12  1  0     0  0
  8 25  1  0     0  0
  9 11  2  0     0  0
 10 29  1  0     0  0
 11 26  1  0     0  0
 12 16  2  0     0  0
 12 17  1  0     0  0
 13 14  1  0     0  0
 13 18  2  0     0  0
 13 30  1  0     0  0
 14 19  2  0     0  0
 14 31  1  0     0  0
 15 20  2  0     0  0
 15 21  1  0     0  0
 15 28  1  0     0  0
 16 20  1  0     0  0
 17 21  2  0     0  0
 18 22  1  0     0  0
 19 23  1  0     0  0
 22 23  2  0     0  0
 24 30  1  0     0  0
 25 31  1  0     0  0
 29 32  1  0     0  0
 32 33  1  0     0  0
 33 34  1  0     0  0
M  END
> <standard_type>
pIC50

> <# Confs.>
25

> <canonical_smiles>
O=C(CC1=CC=CC=C1CC(O)=O)NC2=CC=C(CN3C(COC)=C(Cl)N=C3CCCC)C=C2

> <standard_relation>
=

> <Publication_ID>
nan

> <predicted_activity_value>
5.1487416512809245

> <actual_activity_value>
5.552841968657781

> <Compound>
17

> <standard_units>
nM

> hash
15369469530252257554

$$$$
17_
XXILIB    08252103513D 0   0.00000     0.00000

 34 36  0     1  0            999 V2000
    3.3007   -1.4761    4.6752 Cl  0  0  0  0  0  1           0  0  0
   -9.7652    1.1700   -1.5634 O   0  0  0  0  0  2           0  0  0
   -4.8662    0.0949   -2.1788 O   0  0  0  0  0  2           0  0  0
    0.8536   -2.9158    2.0247 O   0  0  0  0  0  2           0  0  0
   -9.7616    1.7017   -3.7784 O   0  0  0  0  0  2           0  0  0
    2.0229    0.0000    1.3517 N   0  0  0  0  0  3           0  0  0
    2.7702    0.7729    3.2963 N   0  0  0  0  0  3           0  0  0
   -4.2221    0.0472    0.0543 N   0  0  0  0  0  3           0  0  0
    2.7814   -0.5972    3.3094 C   0  0  0  0  0  4           0  0  0
    2.3165    1.1181    2.1082 C   0  0  0  0  0  4           0  0  0
    2.3291   -1.1136    2.1092 C   0  0  0  0  0  4           0  0  0
   -2.8151    0.0346   -0.0004 C   0  0  0  0  0  4           0  0  0
   -8.1076   -1.0855   -2.1517 C   0  0  0  0  0  4           0  0  0
   -7.3600   -1.1073   -0.9534 C   0  0  0  0  0  4           0  0  0
    0.0000    0.0000   -0.0000 C   0  0  0  0  0  4           0  0  0
   -2.1086    0.0153    1.2063 C   0  0  0  0  0  4           0  0  0
   -2.1114    0.0406   -1.2090 C   0  0  0  0  0  4           0  0  0
   -8.7936   -2.2485   -2.5501 C   0  0  0  0  0  4           0  0  0
   -7.3308   -2.2890   -0.1894 C   0  0  0  0  0  4           0  0  0
   -0.7119    0.0000    1.2059 C   0  0  0  0  0  4           0  0  0
   -0.7134    0.0252   -1.2060 C   0  0  0  0  0  4           0  0  0
   -8.7568   -3.4076   -1.7767 C   0  0  0  0  0  4           0  0  0
   -8.0269   -3.4271   -0.5947 C   0  0  0  0  0  4           0  0  0
   -9.3126    1.0274   -2.6904 C   0  0  0  0  0  4           0  0  0
   -5.1435    0.0667   -0.9817 C   0  0  0  0  0  4           0  0  0
    2.1677   -2.5140    1.6566 C   0  0  0  0  0  4           0  0  0
    0.5878   -4.2569    1.6350 C   0  0  0  0  0  4           0  0  0
    1.4983    0.0000    0.0000 C   0  0  0  0  0  4           0  0  0
    2.1356    2.5200    1.6472 C   0  0  0  0  0  4           0  0  0
   -8.1784    0.1143   -3.0491 C   0  0  0  0  0  4           0  0  0
   -6.5655    0.0745   -0.4625 C   0  0  0  0  0  4           0  0  0
    3.3795    3.0691    0.9550 C   0  0  0  0  0  4           0  0  0
    3.1669    4.5074    0.4926 C   0  0  0  0  0  4           0  0  0
    4.4041    5.0589   -0.1980 C   0  0  0  0  0  4           0  0  0
  1  9  1  0     0  0
  2 24  2  0     0  0
  3 25  2  0     0  0
  4 26  1  0     0  0
  4 27  1  0     0  0
  5 24  1  0     0  0
  6 10  1  0     0  0
  6 11  1  0     0  0
  6 28  1  0     0  0
  7  9  1  0     0  0
  7 10  2  0     0  0
  8 12  1  0     0  0
  8 25  1  0     0  0
  9 11  2  0     0  0
 10 29  1  0     0  0
 11 26  1  0     0  0
 12 16  2  0     0  0
 12 17  1  0     0  0
 13 14  1  0     0  0
 13 18  2  0     0  0
 13 30  1  0     0  0
 14 19  2  0     0  0
 14 31  1  0     0  0
 15 20  2  0     0  0
 15 21  1  0     0  0
 15 28  1  0     0  0
 16 20  1  0     0  0
 17 21  2  0     0  0
 18 22  1  0     0  0
 19 23  1  0     0  0
 22 23  2  0     0  0
 24 30  1  0     0  0
 25 31  1  0     0  0
 29 32  1  0     0  0
 32 33  1  0     0  0
 33 34  1  0     0  0
M  END
> <standard_type>
pIC50

> <# Confs.>
25

> <canonical_smiles>
O=C(CC1=CC=CC=C1CC(O)=O)NC2=CC=C(CN3C(COC)=C(Cl)N=C3CCCC)C=C2

> <standard_relation>
=

> <Publication_ID>
nan

> <predicted_activity_value>
5.1487416512809245

> <actual_activity_value>
5.552841968657781

> <Compound>
17

> <standard_units>
nM

> hash
15369469530252257554

$$$$
17_
XXILIB    08252103513D 0   0.00000     0.00000

 34 36  0     1  0            999 V2000
    3.3007   -1.4761    4.6752 Cl  0  0  0  0  0  1           0  0  0
  -10.1096    0.8251   -1.7714 O   0  0  0  0  0  2           0  0  0
   -4.8662    0.0949   -2.1788 O   0  0  0  0  0  2           0  0  0
    0.8536   -2.9158    2.0247 O   0  0  0  0  0  2           0  0  0
   -9.5524    0.5333   -3.9608 O   0  0  0  0  0  2           0  0  0
    2.0229    0.0000    1.3517 N   0  0  0  0  0  3           0  0  0
    2.7702    0.7729    3.2963 N   0  0  0  0  0  3           0  0  0
   -4.2221    0.0472    0.0543 N   0  0  0  0  0  3           0  0  0
    2.7814   -0.5972    3.3094 C   0  0  0  0  0  4           0  0  0
    2.3165    1.1181    2.1082 C   0  0  0  0  0  4           0  0  0
    2.3291   -1.1136    2.1092 C   0  0  0  0  0  4           0  0  0
   -2.8151    0.0346   -0.0004 C   0  0  0  0  0  4           0  0  0
   -7.7504    2.2182   -1.2226 C   0  0  0  0  0  4           0  0  0
   -7.0812    1.4702   -0.2285 C   0  0  0  0  0  4           0  0  0
    0.0000    0.0000    0.0000 C   0  0  0  0  0  4           0  0  0
   -2.1086    0.0153    1.2063 C   0  0  0  0  0  4           0  0  0
   -2.1114    0.0406   -1.2090 C   0  0  0  0  0  4           0  0  0
   -8.2280    3.5037   -0.9044 C   0  0  0  0  0  4           0  0  0
   -6.9047    2.0367    1.0478 C   0  0  0  0  0  4           0  0  0
   -0.7119    0.0000    1.2059 C   0  0  0  0  0  4           0  0  0
   -0.7134    0.0252   -1.2060 C   0  0  0  0  0  4           0  0  0
   -8.0385    4.0495    0.3641 C   0  0  0  0  0  4           0  0  0
   -7.3745    3.3165    1.3399 C   0  0  0  0  0  4           0  0  0
   -9.3265    0.9758   -2.6985 C   0  0  0  0  0  4           0  0  0
   -5.1435    0.0667   -0.9817 C   0  0  0  0  0  4           0  0  0
    2.1677   -2.5140    1.6566 C   0  0  0  0  0  4           0  0  0
    0.5878   -4.2569    1.6350 C   0  0  0  0  0  4           0  0  0
    1.4983    0.0000    0.0000 C   0  0  0  0  0  4           0  0  0
    2.1356    2.5200    1.6472 C   0  0  0  0  0  4           0  0  0
   -8.0129    1.6925   -2.6027 C   0  0  0  0  0  4           0  0  0
   -6.5655    0.0745   -0.4625 C   0  0  0  0  0  4           0  0  0
    3.3795    3.0691    0.9550 C   0  0  0  0  0  4           0  0  0
    3.1669    4.5074    0.4926 C   0  0  0  0  0  4           0  0  0
    4.4041    5.0589   -0.1980 C   0  0  0  0  0  4           0  0  0
  1  9  1  0     0  0
  2 24  2  0     0  0
  3 25  2  0     0  0
  4 26  1  0     0  0
  4 27  1  0     0  0
  5 24  1  0     0  0
  6 10  1  0     0  0
  6 11  1  0     0  0
  6 28  1  0     0  0
  7  9  1  0     0  0
  7 10  2  0     0  0
  8 12  1  0     0  0
  8 25  1  0     0  0
  9 11  2  0     0  0
 10 29  1  0     0  0
 11 26  1  0     0  0
 12 16  2  0     0  0
 12 17  1  0     0  0
 13 14  1  0     0  0
 13 18  2  0     0  0
 13 30  1  0     0  0
 14 19  2  0     0  0
 14 31  1  0     0  0
 15 20  2  0     0  0
 15 21  1  0     0  0
 15 28  1  0     0  0
 16 20  1  0     0  0
 17 21  2  0     0  0
 18 22  1  0     0  0
 19 23  1  0     0  0
 22 23  2  0     0  0
 24 30  1  0     0  0
 25 31  1  0     0  0
 29 32  1  0     0  0
 32 33  1  0     0  0
 33 34  1  0     0  0
M  END
> <standard_type>
pIC50

> <# Confs.>
25

> <canonical_smiles>
O=C(CC1=CC=CC=C1CC(O)=O)NC2=CC=C(CN3C(COC)=C(Cl)N=C3CCCC)C=C2

> <standard_relation>
=

> <Publication_ID>
nan

> <predicted_activity_value>
5.1487416512809245

> <actual_activity_value>
5.552841968657781

> <Compound>
17

> <standard_units>
nM

> hash
15369469530252257554

$$$$
17_
XXILIB    08252103513D 0   0.00000     0.00000

 34 36  0     1  0            999 V2000
    3.3217   -1.4761   -4.6670 Cl  0  0  0  0  0  1           0  0  0
   -9.7652    1.1700   -1.5634 O   0  0  0  0  0  2           0  0  0
   -4.8662    0.0949   -2.1788 O   0  0  0  0  0  2           0  0  0
    3.3401   -2.9158   -1.0597 O   0  0  0  0  0  2           0  0  0
   -9.7616    1.7017   -3.7784 O   0  0  0  0  0  2           0  0  0
    2.0229    0.0000   -1.3517 N   0  0  0  0  0  3           0  0  0
    2.7831    0.7729   -3.2912 N   0  0  0  0  0  3           0  0  0
   -4.2221    0.0472    0.0543 N   0  0  0  0  0  3           0  0  0
    2.7837   -0.5972   -3.3086 C   0  0  0  0  0  4           0  0  0
    2.3165    1.1181   -2.1082 C   0  0  0  0  0  4           0  0  0
    2.3079   -1.1136   -2.1174 C   0  0  0  0  0  4           0  0  0
   -2.8151    0.0346   -0.0004 C   0  0  0  0  0  4           0  0  0
   -8.1076   -1.0855   -2.1517 C   0  0  0  0  0  4           0  0  0
   -7.3600   -1.1073   -0.9534 C   0  0  0  0  0  4           0  0  0
    0.0000    0.0000   -0.0000 C   0  0  0  0  0  4           0  0  0
   -2.1086    0.0153    1.2063 C   0  0  0  0  0  4           0  0  0
   -2.1114    0.0406   -1.2090 C   0  0  0  0  0  4           0  0  0
   -8.7936   -2.2485   -2.5501 C   0  0  0  0  0  4           0  0  0
   -7.3308   -2.2890   -0.1894 C   0  0  0  0  0  4           0  0  0
   -0.7119    0.0000    1.2059 C   0  0  0  0  0  4           0  0  0
   -0.7134    0.0252   -1.2060 C   0  0  0  0  0  4           0  0  0
   -8.7568   -3.4076   -1.7767 C   0  0  0  0  0  4           0  0  0
   -8.0269   -3.4271   -0.5947 C   0  0  0  0  0  4           0  0  0
   -9.3126    1.0274   -2.6904 C   0  0  0  0  0  4           0  0  0
   -5.1435    0.0667   -0.9817 C   0  0  0  0  0  4           0  0  0
    2.1218   -2.5140   -1.6744 C   0  0  0  0  0  4           0  0  0
    3.2734   -4.2569   -0.5927 C   0  0  0  0  0  4           0  0  0
    1.4983   -0.0000   -0.0000 C   0  0  0  0  0  4           0  0  0
    2.1391    2.5200   -1.6459 C   0  0  0  0  0  4           0  0  0
   -8.1784    0.1143   -3.0491 C   0  0  0  0  0  4           0  0  0
   -6.5655    0.0745   -0.4625 C   0  0  0  0  0  4           0  0  0
    3.3856    3.0666   -0.9564 C   0  0  0  0  0  4           0  0  0
    3.1765    4.5049   -0.4925 C   0  0  0  0  0  4           0  0  0
    4.4163    5.0539    0.1954 C   0  0  0  0  0  4           0  0  0
  1  9  1  0     0  0
  2 24  2  0     0  0
  3 25  2  0     0  0
  4 26  1  0     0  0
  4 27  1  0     0  0
  5 24  1  0     0  0
  6 10  1  0     0  0
  6 11  1  0     0  0
  6 28  1  0     0  0
  7  9  1  0     0  0
  7 10  2  0     0  0
  8 12  1  0     0  0
  8 25  1  0     0  0
  9 11  2  0     0  0
 10 29  1  0     0  0
 11 26  1  0     0  0
 12 16  2  0     0  0
 12 17  1  0     0  0
 13 14  1  0     0  0
 13 18  2  0     0  0
 13 30  1  0     0  0
 14 19  2  0     0  0
 14 31  1  0     0  0
 15 20  2  0     0  0
 15 21  1  0     0  0
 15 28  1  0     0  0
 16 20  1  0     0  0
 17 21  2  0     0  0
 18 22  1  0     0  0
 19 23  1  0     0  0
 22 23  2  0     0  0
 24 30  1  0     0  0
 25 31  1  0     0  0
 29 32  1  0     0  0
 32 33  1  0     0  0
 33 34  1  0     0  0
M  END
> <standard_type>
pIC50

> <# Confs.>
25

> <canonical_smiles>
O=C(CC1=CC=CC=C1CC(O)=O)NC2=CC=C(CN3C(COC)=C(Cl)N=C3CCCC)C=C2

> <standard_relation>
=

> <Publication_ID>
nan

> <predicted_activity_value>
5.1487416512809245

> <actual_activity_value>
5.552841968657781

> <Compound>
17

> <standard_units>
nM

> hash
15369469530252257554

$$$$
17_
XXILIB    08252103513D 0   0.00000     0.00000

 34 36  0     1  0            999 V2000
    3.3007    1.4761   -4.6752 Cl  0  0  0  0  0  1           0  0  0
   -9.7652    1.1700   -1.5634 O   0  0  0  0  0  2           0  0  0
   -4.8662    0.0949   -2.1788 O   0  0  0  0  0  2           0  0  0
    3.3921    2.8894   -1.0374 O   0  0  0  0  0  2           0  0  0
   -9.7616    1.7017   -3.7784 O   0  0  0  0  0  2           0  0  0
    2.0229    0.0000   -1.3517 N   0  0  0  0  0  3           0  0  0
    2.7702   -0.7729   -3.2963 N   0  0  0  0  0  3           0  0  0
   -4.2221    0.0472    0.0543 N   0  0  0  0  0  3           0  0  0
    2.7814    0.5972   -3.3094 C   0  0  0  0  0  4           0  0  0
    2.3165   -1.1181   -2.1082 C   0  0  0  0  0  4           0  0  0
    2.3291    1.1136   -2.1092 C   0  0  0  0  0  4           0  0  0
   -2.8151    0.0346   -0.0004 C   0  0  0  0  0  4           0  0  0
   -8.1076   -1.0855   -2.1517 C   0  0  0  0  0  4           0  0  0
   -7.3600   -1.1073   -0.9534 C   0  0  0  0  0  4           0  0  0
    0.0000    0.0000   -0.0000 C   0  0  0  0  0  4           0  0  0
   -2.1086    0.0153    1.2063 C   0  0  0  0  0  4           0  0  0
   -2.1114    0.0406   -1.2090 C   0  0  0  0  0  4           0  0  0
   -8.7936   -2.2485   -2.5501 C   0  0  0  0  0  4           0  0  0
   -7.3308   -2.2890   -0.1894 C   0  0  0  0  0  4           0  0  0
   -0.7119    0.0000    1.2059 C   0  0  0  0  0  4           0  0  0
   -0.7134    0.0252   -1.2060 C   0  0  0  0  0  4           0  0  0
   -8.7568   -3.4076   -1.7767 C   0  0  0  0  0  4           0  0  0
   -8.0269   -3.4271   -0.5947 C   0  0  0  0  0  4           0  0  0
   -9.3126    1.0274   -2.6904 C   0  0  0  0  0  4           0  0  0
   -5.1435    0.0667   -0.9817 C   0  0  0  0  0  4           0  0  0
    2.1677    2.5140   -1.6566 C   0  0  0  0  0  4           0  0  0
    3.3490    4.2282   -0.5610 C   0  0  0  0  0  4           0  0  0
    1.4983   -0.0000   -0.0000 C   0  0  0  0  0  4           0  0  0
    2.1356   -2.5200   -1.6472 C   0  0  0  0  0  4           0  0  0
   -8.1784    0.1143   -3.0491 C   0  0  0  0  0  4           0  0  0
   -6.5655    0.0745   -0.4625 C   0  0  0  0  0  4           0  0  0
    3.3795   -3.0691   -0.9550 C   0  0  0  0  0  4           0  0  0
    3.1669   -4.5074   -0.4926 C   0  0  0  0  0  4           0  0  0
    4.4041   -5.0589    0.1980 C   0  0  0  0  0  4           0  0  0
  1  9  1  0     0  0
  2 24  2  0     0  0
  3 25  2  0     0  0
  4 26  1  0     0  0
  4 27  1  0     0  0
  5 24  1  0     0  0
  6 10  1  0     0  0
  6 11  1  0     0  0
  6 28  1  0     0  0
  7  9  1  0     0  0
  7 10  2  0     0  0
  8 12  1  0     0  0
  8 25  1  0     0  0
  9 11  2  0     0  0
 10 29  1  0     0  0
 11 26  1  0     0  0
 12 16  2  0     0  0
 12 17  1  0     0  0
 13 14  1  0     0  0
 13 18  2  0     0  0
 13 30  1  0     0  0
 14 19  2  0     0  0
 14 31  1  0     0  0
 15 20  2  0     0  0
 15 21  1  0     0  0
 15 28  1  0     0  0
 16 20  1  0     0  0
 17 21  2  0     0  0
 18 22  1  0     0  0
 19 23  1  0     0  0
 22 23  2  0     0  0
 24 30  1  0     0  0
 25 31  1  0     0  0
 29 32  1  0     0  0
 32 33  1  0     0  0
 33 34  1  0     0  0
M  END
> <standard_type>
pIC50

> <# Confs.>
25

> <canonical_smiles>
O=C(CC1=CC=CC=C1CC(O)=O)NC2=CC=C(CN3C(COC)=C(Cl)N=C3CCCC)C=C2

> <standard_relation>
=

> <Publication_ID>
nan

> <predicted_activity_value>
5.1487416512809245

> <actual_activity_value>
5.552841968657781

> <Compound>
17

> <standard_units>
nM

> hash
15369469530252257554

$$$$
15_
XXILIB    08252103513D 0   0.00000     0.00000

 28 31  0     1  0            999 V2000
   -3.5590    0.0029   -1.4785 Cl  0  0  0  0  0  1           0  0  0
    4.0473   -0.1705   -3.6810 N   0  0  0  0  0  3           0  0  0
   -0.6371    3.4657   -3.4876 N   0  0  0  0  0  3           0  0  0
    4.9298   -0.5420   -2.7639 N   0  0  0  0  0  3           0  0  0
    0.5392    3.1428   -4.0083 N   0  0  0  0  0  3           0  0  0
    3.2667    0.7291   -3.0680 N   0  0  0  0  0  3           0  0  0
   -1.0752    2.3461   -2.8973 N   0  0  0  0  0  3           0  0  0
    4.7146    0.1153   -1.5746 N   0  0  0  0  0  3           0  0  0
    0.8503    1.8275   -3.7520 N   0  0  0  0  0  3           0  0  0
    0.0000    0.0000    0.0000 N   0  0  0  0  0  3           0  0  0
   -2.0837   -0.0002    0.7714 N   0  0  0  0  0  3           0  0  0
   -2.0990   -0.0049   -0.5984 C   0  0  0  0  0  4           0  0  0
    3.6781    0.9054   -1.7749 C   0  0  0  0  0  4           0  0  0
   -0.1617    1.3424   -3.0616 C   0  0  0  0  0  4           0  0  0
   -0.8123    0.0000    1.1177 C   0  0  0  0  0  4           0  0  0
   -0.8164   -0.0135   -1.1139 C   0  0  0  0  0  4           0  0  0
    3.0505    1.8059   -0.8388 C   0  0  0  0  0  4           0  0  0
    1.9918    1.3966   -0.0000 C   0  0  0  0  0  4           0  0  0
    3.5280    3.1245   -0.7637 C   0  0  0  0  0  4           0  0  0
    1.4403    2.3305    0.8957 C   0  0  0  0  0  4           0  0  0
    2.9622    4.0362    0.1262 C   0  0  0  0  0  4           0  0  0
    1.9184    3.6399    0.9552 C   0  0  0  0  0  4           0  0  0
    1.4499    0.0000   -0.0000 C   0  0  0  0  0  4           0  0  0
   -0.3358   -0.0232   -2.5209 C   0  0  0  0  0  4           0  0  0
   -0.3185    0.0095    2.5201 C   0  0  0  0  0  4           0  0  0
   -1.0596   -0.9886    3.4050 C   0  0  0  0  0  4           0  0  0
   -0.9464   -2.4436    2.9479 C   0  0  0  0  0  4           0  0  0
   -1.7062   -3.3804    3.8724 C   0  0  0  0  0  4           0  0  0
  1 12  1  0     0  0
  2  4  2  0     0  0
  2  6  1  0     0  0
  3  5  2  0     0  0
  3  7  1  0     0  0
  4  8  1  0     0  0
  5  9  1  0     0  0
  6 13  1  0     0  0
  7 14  1  0     0  0
  8 13  2  0     0  0
  9 14  2  0     0  0
 10 15  1  0     0  0
 10 16  1  0     0  0
 10 23  1  0     0  0
 11 12  1  0     0  0
 11 15  2  0     0  0
 12 16  2  0     0  0
 13 17  1  0     0  0
 14 24  1  0     0  0
 15 25  1  0     0  0
 16 24  1  0     0  0
 17 18  1  0     0  0
 17 19  2  0     0  0
 18 20  2  0     0  0
 18 23  1  0     0  0
 19 21  1  0     0  0
 20 22  1  0     0  0
 21 22  2  0     0  0
 25 26  1  0     0  0
 26 27  1  0     0  0
 27 28  1  0     0  0
M  END
> <standard_type>
pIC50

> <# Confs.>
25

> <canonical_smiles>
ClC(N=C1CCCC)=C(CC2=NN=NN2)N1CC3=CC=CC=C3C4=NN=NN4

> <standard_relation>
=

> <Publication_ID>
nan

> <predicted_activity_value>
5.0

> <actual_activity_value>
5.920818753952375

> <Compound>
15

> <standard_units>
nM

> hash
13619753703845672401

$$$$
15_
XXILIB    08252103513D 0   0.00000     0.00000

 28 31  0     1  0            999 V2000
   -3.5590    0.0029   -1.4785 Cl  0  0  0  0  0  1           0  0  0
    4.1066    0.2130   -3.6292 N   0  0  0  0  0  3           0  0  0
   -0.6127   -3.5256   -3.4454 N   0  0  0  0  0  3           0  0  0
    4.9901    0.5458   -2.6984 N   0  0  0  0  0  3           0  0  0
    0.5541   -3.1967   -3.9835 N   0  0  0  0  0  3           0  0  0
    3.3044   -0.6848   -3.0421 N   0  0  0  0  0  3           0  0  0
   -1.0521   -2.4058   -2.8566 N   0  0  0  0  0  3           0  0  0
    4.7539   -0.1341   -1.5258 N   0  0  0  0  0  3           0  0  0
    0.8572   -1.8769   -3.7408 N   0  0  0  0  0  3           0  0  0
    0.0000    0.0000    0.0000 N   0  0  0  0  0  3           0  0  0
   -2.0837   -0.0002    0.7714 N   0  0  0  0  0  3           0  0  0
   -2.0990   -0.0049   -0.5984 C   0  0  0  0  0  4           0  0  0
    3.7015   -0.8963   -1.7497 C   0  0  0  0  0  4           0  0  0
   -0.1484   -1.3962   -3.0382 C   0  0  0  0  0  4           0  0  0
   -0.8123    0.0000    1.1177 C   0  0  0  0  0  4           0  0  0
   -0.8164   -0.0135   -1.1139 C   0  0  0  0  0  4           0  0  0
    3.0505   -1.8059   -0.8388 C   0  0  0  0  0  4           0  0  0
    1.9918   -1.3966    0.0000 C   0  0  0  0  0  4           0  0  0
    3.4877   -3.1401   -0.8070 C   0  0  0  0  0  4           0  0  0
    1.3996   -2.3463    0.8520 C   0  0  0  0  0  4           0  0  0
    2.8915   -4.0636    0.0504 C   0  0  0  0  0  4           0  0  0
    1.8484   -3.6671    0.8801 C   0  0  0  0  0  4           0  0  0
    1.4499   -0.0000   -0.0000 C   0  0  0  0  0  4           0  0  0
   -0.3358   -0.0232   -2.5209 C   0  0  0  0  0  4           0  0  0
   -0.3185    0.0095    2.5201 C   0  0  0  0  0  4           0  0  0
   -1.0721    1.0062    3.3959 C   0  0  0  0  0  4           0  0  0
   -0.9771    2.4583    2.9255 C   0  0  0  0  0  4           0  0  0
   -1.7487    3.3938    3.8416 C   0  0  0  0  0  4           0  0  0
  1 12  1  0     0  0
  2  4  2  0     0  0
  2  6  1  0     0  0
  3  5  2  0     0  0
  3  7  1  0     0  0
  4  8  1  0     0  0
  5  9  1  0     0  0
  6 13  1  0     0  0
  7 14  1  0     0  0
  8 13  2  0     0  0
  9 14  2  0     0  0
 10 15  1  0     0  0
 10 16  1  0     0  0
 10 23  1  0     0  0
 11 12  1  0     0  0
 11 15  2  0     0  0
 12 16  2  0     0  0
 13 17  1  0     0  0
 14 24  1  0     0  0
 15 25  1  0     0  0
 16 24  1  0     0  0
 17 18  1  0     0  0
 17 19  2  0     0  0
 18 20  2  0     0  0
 18 23  1  0     0  0
 19 21  1  0     0  0
 20 22  1  0     0  0
 21 22  2  0     0  0
 25 26  1  0     0  0
 26 27  1  0     0  0
 27 28  1  0     0  0
M  END
> <standard_type>
pIC50

> <# Confs.>
25

> <canonical_smiles>
ClC(N=C1CCCC)=C(CC2=NN=NN2)N1CC3=CC=CC=C3C4=NN=NN4

> <standard_relation>
=

> <Publication_ID>
nan

> <predicted_activity_value>
5.0

> <actual_activity_value>
5.920818753952375

> <Compound>
15

> <standard_units>
nM

> hash
13619753703845672401

$$$$
15_
XXILIB    08252103513D 0   0.00000     0.00000

 28 31  0     1  0            999 V2000
   -3.5590    0.0029   -1.4785 Cl  0  0  0  0  0  1           0  0  0
    4.0473   -0.1705   -3.6810 N   0  0  0  0  0  3           0  0  0
   -0.6371    3.4657   -3.4876 N   0  0  0  0  0  3           0  0  0
    4.9298   -0.5420   -2.7639 N   0  0  0  0  0  3           0  0  0
    0.5392    3.1428   -4.0083 N   0  0  0  0  0  3           0  0  0
    3.2667    0.7291   -3.0680 N   0  0  0  0  0  3           0  0  0
   -1.0752    2.3461   -2.8973 N   0  0  0  0  0  3           0  0  0
    4.7146    0.1153   -1.5746 N   0  0  0  0  0  3           0  0  0
    0.8503    1.8275   -3.7520 N   0  0  0  0  0  3           0  0  0
    0.0000    0.0000    0.0000 N   0  0  0  0  0  3           0  0  0
   -2.0837   -0.0002    0.7714 N   0  0  0  0  0  3           0  0  0
   -2.0990   -0.0049   -0.5984 C   0  0  0  0  0  4           0  0  0
    3.6781    0.9054   -1.7749 C   0  0  0  0  0  4           0  0  0
   -0.1617    1.3424   -3.0616 C   0  0  0  0  0  4           0  0  0
   -0.8123    0.0000    1.1177 C   0  0  0  0  0  4           0  0  0
   -0.8164   -0.0135   -1.1139 C   0  0  0  0  0  4           0  0  0
    3.0505    1.8059   -0.8388 C   0  0  0  0  0  4           0  0  0
    1.9918    1.3966   -0.0000 C   0  0  0  0  0  4           0  0  0
    3.5280    3.1245   -0.7637 C   0  0  0  0  0  4           0  0  0
    1.4403    2.3305    0.8957 C   0  0  0  0  0  4           0  0  0
    2.9622    4.0362    0.1262 C   0  0  0  0  0  4           0  0  0
    1.9184    3.6399    0.9552 C   0  0  0  0  0  4           0  0  0
    1.4499    0.0000   -0.0000 C   0  0  0  0  0  4           0  0  0
   -0.3358   -0.0232   -2.5209 C   0  0  0  0  0  4           0  0  0
   -0.3185    0.0095    2.5201 C   0  0  0  0  0  4           0  0  0
   -1.0596   -0.9886    3.4050 C   0  0  0  0  0  4           0  0  0
   -0.5867   -1.0160    4.8591 C   0  0  0  0  0  4           0  0  0
   -1.3659   -2.0296    5.6809 C   0  0  0  0  0  4           0  0  0
  1 12  1  0     0  0
  2  4  2  0     0  0
  2  6  1  0     0  0
  3  5  2  0     0  0
  3  7  1  0     0  0
  4  8  1  0     0  0
  5  9  1  0     0  0
  6 13  1  0     0  0
  7 14  1  0     0  0
  8 13  2  0     0  0
  9 14  2  0     0  0
 10 15  1  0     0  0
 10 16  1  0     0  0
 10 23  1  0     0  0
 11 12  1  0     0  0
 11 15  2  0     0  0
 12 16  2  0     0  0
 13 17  1  0     0  0
 14 24  1  0     0  0
 15 25  1  0     0  0
 16 24  1  0     0  0
 17 18  1  0     0  0
 17 19  2  0     0  0
 18 20  2  0     0  0
 18 23  1  0     0  0
 19 21  1  0     0  0
 20 22  1  0     0  0
 21 22  2  0     0  0
 25 26  1  0     0  0
 26 27  1  0     0  0
 27 28  1  0     0  0
M  END
> <standard_type>
pIC50

> <# Confs.>
25

> <canonical_smiles>
ClC(N=C1CCCC)=C(CC2=NN=NN2)N1CC3=CC=CC=C3C4=NN=NN4

> <standard_relation>
=

> <Publication_ID>
nan

> <predicted_activity_value>
5.0

> <actual_activity_value>
5.920818753952375

> <Compound>
15

> <standard_units>
nM

> hash
13619753703845672401

$$$$
15_
XXILIB    08252103513D 0   0.00000     0.00000

 28 31  0     1  0            999 V2000
   -3.5590    0.0029   -1.4785 Cl  0  0  0  0  0  1           0  0  0
    4.1066    0.2130   -3.6292 N   0  0  0  0  0  3           0  0  0
   -0.6127   -3.5256   -3.4454 N   0  0  0  0  0  3           0  0  0
    4.9901    0.5458   -2.6984 N   0  0  0  0  0  3           0  0  0
    0.5541   -3.1967   -3.9835 N   0  0  0  0  0  3           0  0  0
    3.3044   -0.6848   -3.0421 N   0  0  0  0  0  3           0  0  0
   -1.0521   -2.4058   -2.8566 N   0  0  0  0  0  3           0  0  0
    4.7539   -0.1341   -1.5258 N   0  0  0  0  0  3           0  0  0
    0.8572   -1.8769   -3.7408 N   0  0  0  0  0  3           0  0  0
    0.0000    0.0000    0.0000 N   0  0  0  0  0  3           0  0  0
   -2.0837   -0.0002    0.7714 N   0  0  0  0  0  3           0  0  0
   -2.0990   -0.0049   -0.5984 C   0  0  0  0  0  4           0  0  0
    3.7015   -0.8963   -1.7497 C   0  0  0  0  0  4           0  0  0
   -0.1484   -1.3962   -3.0382 C   0  0  0  0  0  4           0  0  0
   -0.8123    0.0000    1.1177 C   0  0  0  0  0  4           0  0  0
   -0.8164   -0.0135   -1.1139 C   0  0  0  0  0  4           0  0  0
    3.0505   -1.8059   -0.8388 C   0  0  0  0  0  4           0  0  0
    1.9918   -1.3966    0.0000 C   0  0  0  0  0  4           0  0  0
    3.4877   -3.1401   -0.8070 C   0  0  0  0  0  4           0  0  0
    1.3996   -2.3463    0.8520 C   0  0  0  0  0  4           0  0  0
    2.8915   -4.0636    0.0504 C   0  0  0  0  0  4           0  0  0
    1.8484   -3.6671    0.8801 C   0  0  0  0  0  4           0  0  0
    1.4499   -0.0000   -0.0000 C   0  0  0  0  0  4           0  0  0
   -0.3358   -0.0232   -2.5209 C   0  0  0  0  0  4           0  0  0
   -0.3185    0.0095    2.5201 C   0  0  0  0  0  4           0  0  0
   -1.0721    1.0062    3.3959 C   0  0  0  0  0  4           0  0  0
   -0.5997    1.0528    4.8497 C   0  0  0  0  0  4           0  0  0
   -1.3916    2.0640    5.6623 C   0  0  0  0  0  4           0  0  0
  1 12  1  0     0  0
  2  4  2  0     0  0
  2  6  1  0     0  0
  3  5  2  0     0  0
  3  7  1  0     0  0
  4  8  1  0     0  0
  5  9  1  0     0  0
  6 13  1  0     0  0
  7 14  1  0     0  0
  8 13  2  0     0  0
  9 14  2  0     0  0
 10 15  1  0     0  0
 10 16  1  0     0  0
 10 23  1  0     0  0
 11 12  1  0     0  0
 11 15  2  0     0  0
 12 16  2  0     0  0
 13 17  1  0     0  0
 14 24  1  0     0  0
 15 25  1  0     0  0
 16 24  1  0     0  0
 17 18  1  0     0  0
 17 19  2  0     0  0
 18 20  2  0     0  0
 18 23  1  0     0  0
 19 21  1  0     0  0
 20 22  1  0     0  0
 21 22  2  0     0  0
 25 26  1  0     0  0
 26 27  1  0     0  0
 27 28  1  0     0  0
M  END
> <standard_type>
pIC50

> <# Confs.>
25

> <canonical_smiles>
ClC(N=C1CCCC)=C(CC2=NN=NN2)N1CC3=CC=CC=C3C4=NN=NN4

> <standard_relation>
=

> <Publication_ID>
nan

> <predicted_activity_value>
5.0

> <actual_activity_value>
5.920818753952375

> <Compound>
15

> <standard_units>
nM

> hash
13619753703845672401

$$$$
15_
XXILIB    08252103513D 0   0.00000     0.00000

 28 31  0     1  0            999 V2000
   -3.5590    0.0029   -1.4785 Cl  0  0  0  0  0  1           0  0  0
    4.1066    0.2130   -3.6292 N   0  0  0  0  0  3           0  0  0
   -0.6127   -3.5256   -3.4454 N   0  0  0  0  0  3           0  0  0
    4.9901    0.5458   -2.6984 N   0  0  0  0  0  3           0  0  0
    0.5541   -3.1967   -3.9835 N   0  0  0  0  0  3           0  0  0
    3.3044   -0.6848   -3.0421 N   0  0  0  0  0  3           0  0  0
   -1.0521   -2.4058   -2.8566 N   0  0  0  0  0  3           0  0  0
    4.7539   -0.1341   -1.5258 N   0  0  0  0  0  3           0  0  0
    0.8572   -1.8769   -3.7408 N   0  0  0  0  0  3           0  0  0
    0.0000    0.0000    0.0000 N   0  0  0  0  0  3           0  0  0
   -2.0837   -0.0002    0.7714 N   0  0  0  0  0  3           0  0  0
   -2.0990   -0.0049   -0.5984 C   0  0  0  0  0  4           0  0  0
    3.7015   -0.8963   -1.7497 C   0  0  0  0  0  4           0  0  0
   -0.1484   -1.3962   -3.0382 C   0  0  0  0  0  4           0  0  0
   -0.8123    0.0000    1.1177 C   0  0  0  0  0  4           0  0  0
   -0.8164   -0.0135   -1.1139 C   0  0  0  0  0  4           0  0  0
    3.0505   -1.8059   -0.8388 C   0  0  0  0  0  4           0  0  0
    1.9918   -1.3966    0.0000 C   0  0  0  0  0  4           0  0  0
    3.4877   -3.1401   -0.8070 C   0  0  0  0  0  4           0  0  0
    1.3996   -2.3463    0.8520 C   0  0  0  0  0  4           0  0  0
    2.8915   -4.0636    0.0504 C   0  0  0  0  0  4           0  0  0
    1.8484   -3.6671    0.8801 C   0  0  0  0  0  4           0  0  0
    1.4499   -0.0000   -0.0000 C   0  0  0  0  0  4           0  0  0
   -0.3358   -0.0232   -2.5209 C   0  0  0  0  0  4           0  0  0
   -0.3185    0.0095    2.5201 C   0  0  0  0  0  4           0  0  0
   -1.0596   -0.9886    3.4050 C   0  0  0  0  0  4           0  0  0
   -0.5867   -1.0160    4.8591 C   0  0  0  0  0  4           0  0  0
   -1.3659   -2.0296    5.6809 C   0  0  0  0  0  4           0  0  0
  1 12  1  0     0  0
  2  4  2  0     0  0
  2  6  1  0     0  0
  3  5  2  0     0  0
  3  7  1  0     0  0
  4  8  1  0     0  0
  5  9  1  0     0  0
  6 13  1  0     0  0
  7 14  1  0     0  0
  8 13  2  0     0  0
  9 14  2  0     0  0
 10 15  1  0     0  0
 10 16  1  0     0  0
 10 23  1  0     0  0
 11 12  1  0     0  0
 11 15  2  0     0  0
 12 16  2  0     0  0
 13 17  1  0     0  0
 14 24  1  0     0  0
 15 25  1  0     0  0
 16 24  1  0     0  0
 17 18  1  0     0  0
 17 19  2  0     0  0
 18 20  2  0     0  0
 18 23  1  0     0  0
 19 21  1  0     0  0
 20 22  1  0     0  0
 21 22  2  0     0  0
 25 26  1  0     0  0
 26 27  1  0     0  0
 27 28  1  0     0  0
M  END
> <standard_type>
pIC50

> <# Confs.>
25

> <canonical_smiles>
ClC(N=C1CCCC)=C(CC2=NN=NN2)N1CC3=CC=CC=C3C4=NN=NN4

> <standard_relation>
=

> <Publication_ID>
nan

> <predicted_activity_value>
5.0

> <actual_activity_value>
5.920818753952375

> <Compound>
15

> <standard_units>
nM

> hash
13619753703845672401

$$$$
15_
XXILIB    08252103513D 0   0.00000     0.00000

 28 31  0     1  0            999 V2000
   -3.5590    0.0029   -1.4785 Cl  0  0  0  0  0  1           0  0  0
    4.7907   -0.2024   -3.5550 N   0  0  0  0  0  3           0  0  0
   -0.6127   -3.5256   -3.4454 N   0  0  0  0  0  3           0  0  0
    4.5469    0.8175   -2.7438 N   0  0  0  0  0  3           0  0  0
    0.5541   -3.1967   -3.9835 N   0  0  0  0  0  3           0  0  0
    4.2668   -1.2700   -2.9386 N   0  0  0  0  0  3           0  0  0
   -1.0521   -2.4058   -2.8566 N   0  0  0  0  0  3           0  0  0
    3.8723    0.4045   -1.6180 N   0  0  0  0  0  3           0  0  0
    0.8572   -1.8769   -3.7408 N   0  0  0  0  0  3           0  0  0
    0.0000    0.0000    0.0000 N   0  0  0  0  0  3           0  0  0
   -2.0837   -0.0002    0.7714 N   0  0  0  0  0  3           0  0  0
   -2.0990   -0.0049   -0.5984 C   0  0  0  0  0  4           0  0  0
    3.7015   -0.8963   -1.7497 C   0  0  0  0  0  4           0  0  0
   -0.1484   -1.3962   -3.0382 C   0  0  0  0  0  4           0  0  0
   -0.8123    0.0000    1.1177 C   0  0  0  0  0  4           0  0  0
   -0.8164   -0.0135   -1.1139 C   0  0  0  0  0  4           0  0  0
    3.0505   -1.8059   -0.8388 C   0  0  0  0  0  4           0  0  0
    1.9918   -1.3966    0.0000 C   0  0  0  0  0  4           0  0  0
    3.4877   -3.1401   -0.8070 C   0  0  0  0  0  4           0  0  0
    1.3996   -2.3463    0.8520 C   0  0  0  0  0  4           0  0  0
    2.8915   -4.0636    0.0504 C   0  0  0  0  0  4           0  0  0
    1.8484   -3.6671    0.8801 C   0  0  0  0  0  4           0  0  0
    1.4499   -0.0000   -0.0000 C   0  0  0  0  0  4           0  0  0
   -0.3358   -0.0232   -2.5209 C   0  0  0  0  0  4           0  0  0
   -0.3185    0.0095    2.5201 C   0  0  0  0  0  4           0  0  0
   -0.1340    1.4237    3.0627 C   0  0  0  0  0  4           0  0  0
    0.3733    1.4858    4.5041 C   0  0  0  0  0  4           0  0  0
    0.5337    2.9208    4.9785 C   0  0  0  0  0  4           0  0  0
  1 12  1  0     0  0
  2  4  2  0     0  0
  2  6  1  0     0  0
  3  5  2  0     0  0
  3  7  1  0     0  0
  4  8  1  0     0  0
  5  9  1  0     0  0
  6 13  1  0     0  0
  7 14  1  0     0  0
  8 13  2  0     0  0
  9 14  2  0     0  0
 10 15  1  0     0  0
 10 16  1  0     0  0
 10 23  1  0     0  0
 11 12  1  0     0  0
 11 15  2  0     0  0
 12 16  2  0     0  0
 13 17  1  0     0  0
 14 24  1  0     0  0
 15 25  1  0     0  0
 16 24  1  0     0  0
 17 18  1  0     0  0
 17 19  2  0     0  0
 18 20  2  0     0  0
 18 23  1  0     0  0
 19 21  1  0     0  0
 20 22  1  0     0  0
 21 22  2  0     0  0
 25 26  1  0     0  0
 26 27  1  0     0  0
 27 28  1  0     0  0
M  END
> <standard_type>
pIC50

> <# Confs.>
25

> <canonical_smiles>
ClC(N=C1CCCC)=C(CC2=NN=NN2)N1CC3=CC=CC=C3C4=NN=NN4

> <standard_relation>
=

> <Publication_ID>
nan

> <predicted_activity_value>
5.0

> <actual_activity_value>
5.920818753952375

> <Compound>
15

> <standard_units>
nM

> hash
13619753703845672401

$$$$
15_
XXILIB    08252103513D 0   0.00000     0.00000

 28 31  0     1  0            999 V2000
   -3.5590    0.0029   -1.4785 Cl  0  0  0  0  0  1           0  0  0
    6.3008   -0.3739   -0.4404 N   0  0  0  0  0  3           0  0  0
   -0.6371    3.4657   -3.4876 N   0  0  0  0  0  3           0  0  0
    5.4858   -1.1917    0.2112 N   0  0  0  0  0  3           0  0  0
    0.5392    3.1428   -4.0083 N   0  0  0  0  0  3           0  0  0
    5.6090    0.7639   -0.5852 N   0  0  0  0  0  3           0  0  0
   -1.0752    2.3461   -2.8973 N   0  0  0  0  0  3           0  0  0
    4.2828   -0.5808    0.4807 N   0  0  0  0  0  3           0  0  0
    0.8503    1.8275   -3.7520 N   0  0  0  0  0  3           0  0  0
    0.0000    0.0000    0.0000 N   0  0  0  0  0  3           0  0  0
   -2.0837   -0.0002    0.7714 N   0  0  0  0  0  3           0  0  0
   -2.0990   -0.0049   -0.5984 C   0  0  0  0  0  4           0  0  0
    4.3703    0.6367   -0.0178 C   0  0  0  0  0  4           0  0  0
   -0.1617    1.3424   -3.0616 C   0  0  0  0  0  4           0  0  0
   -0.8123    0.0000    1.1177 C   0  0  0  0  0  4           0  0  0
   -0.8164   -0.0135   -1.1139 C   0  0  0  0  0  4           0  0  0
    3.3744    1.6802   -0.0000 C   0  0  0  0  0  4           0  0  0
    1.9918    1.3966    0.0000 C   0  0  0  0  0  4           0  0  0
    3.8111    3.0146    0.0306 C   0  0  0  0  0  4           0  0  0
    1.0825    2.4694    0.0309 C   0  0  0  0  0  4           0  0  0
    2.8927    4.0631    0.0536 C   0  0  0  0  0  4           0  0  0
    1.5290    3.7910    0.0531 C   0  0  0  0  0  4           0  0  0
    1.4499   -0.0000   -0.0000 C   0  0  0  0  0  4           0  0  0
   -0.3358   -0.0232   -2.5209 C   0  0  0  0  0  4           0  0  0
   -0.3185    0.0095    2.5201 C   0  0  0  0  0  4           0  0  0
   -0.1163   -1.3973    3.0756 C   0  0  0  0  0  4           0  0  0
    0.3917   -1.4399    4.5174 C   0  0  0  0  0  4           0  0  0
    0.5700   -2.8684    5.0049 C   0  0  0  0  0  4           0  0  0
  1 12  1  0     0  0
  2  4  2  0     0  0
  2  6  1  0     0  0
  3  5  2  0     0  0
  3  7  1  0     0  0
  4  8  1  0     0  0
  5  9  1  0     0  0
  6 13  1  0     0  0
  7 14  1  0     0  0
  8 13  2  0     0  0
  9 14  2  0     0  0
 10 15  1  0     0  0
 10 16  1  0     0  0
 10 23  1  0     0  0
 11 12  1  0     0  0
 11 15  2  0     0  0
 12 16  2  0     0  0
 13 17  1  0     0  0
 14 24  1  0     0  0
 15 25  1  0     0  0
 16 24  1  0     0  0
 17 18  1  0     0  0
 17 19  2  0     0  0
 18 20  2  0     0  0
 18 23  1  0     0  0
 19 21  1  0     0  0
 20 22  1  0     0  0
 21 22  2  0     0  0
 25 26  1  0     0  0
 26 27  1  0     0  0
 27 28  1  0     0  0
M  END
> <standard_type>
pIC50

> <# Confs.>
25

> <canonical_smiles>
ClC(N=C1CCCC)=C(CC2=NN=NN2)N1CC3=CC=CC=C3C4=NN=NN4

> <standard_relation>
=

> <Publication_ID>
nan

> <predicted_activity_value>
5.0

> <actual_activity_value>
5.920818753952375

> <Compound>
15

> <standard_units>
nM

> hash
13619753703845672401

$$$$
15_
XXILIB    08252103513D 0   0.00000     0.00000

 28 31  0     1  0            999 V2000
   -3.5590    0.0029   -1.4785 Cl  0  0  0  0  0  1           0  0  0
    6.3008   -0.3739   -0.4404 N   0  0  0  0  0  3           0  0  0
   -0.6371    3.4657   -3.4876 N   0  0  0  0  0  3           0  0  0
    5.4858   -1.1917    0.2112 N   0  0  0  0  0  3           0  0  0
    0.5392    3.1428   -4.0083 N   0  0  0  0  0  3           0  0  0
    5.6090    0.7639   -0.5852 N   0  0  0  0  0  3           0  0  0
   -1.0752    2.3461   -2.8973 N   0  0  0  0  0  3           0  0  0
    4.2828   -0.5808    0.4807 N   0  0  0  0  0  3           0  0  0
    0.8503    1.8275   -3.7520 N   0  0  0  0  0  3           0  0  0
    0.0000    0.0000    0.0000 N   0  0  0  0  0  3           0  0  0
   -2.0837   -0.0002    0.7714 N   0  0  0  0  0  3           0  0  0
   -2.0990   -0.0049   -0.5984 C   0  0  0  0  0  4           0  0  0
    4.3703    0.6367   -0.0178 C   0  0  0  0  0  4           0  0  0
   -0.1617    1.3424   -3.0616 C   0  0  0  0  0  4           0  0  0
   -0.8123    0.0000    1.1177 C   0  0  0  0  0  4           0  0  0
   -0.8164   -0.0135   -1.1139 C   0  0  0  0  0  4           0  0  0
    3.3744    1.6802   -0.0000 C   0  0  0  0  0  4           0  0  0
    1.9918    1.3966    0.0000 C   0  0  0  0  0  4           0  0  0
    3.8111    3.0146    0.0306 C   0  0  0  0  0  4           0  0  0
    1.0825    2.4694    0.0309 C   0  0  0  0  0  4           0  0  0
    2.8927    4.0631    0.0536 C   0  0  0  0  0  4           0  0  0
    1.5290    3.7910    0.0531 C   0  0  0  0  0  4           0  0  0
    1.4499   -0.0000   -0.0000 C   0  0  0  0  0  4           0  0  0
   -0.3358   -0.0232   -2.5209 C   0  0  0  0  0  4           0  0  0
   -0.3185    0.0095    2.5201 C   0  0  0  0  0  4           0  0  0
   -0.1163   -1.3973    3.0756 C   0  0  0  0  0  4           0  0  0
   -1.3825   -2.2546    3.1002 C   0  0  0  0  0  4           0  0  0
   -1.1088   -3.6392    3.6638 C   0  0  0  0  0  4           0  0  0
  1 12  1  0     0  0
  2  4  2  0     0  0
  2  6  1  0     0  0
  3  5  2  0     0  0
  3  7  1  0     0  0
  4  8  1  0     0  0
  5  9  1  0     0  0
  6 13  1  0     0  0
  7 14  1  0     0  0
  8 13  2  0     0  0
  9 14  2  0     0  0
 10 15  1  0     0  0
 10 16  1  0     0  0
 10 23  1  0     0  0
 11 12  1  0     0  0
 11 15  2  0     0  0
 12 16  2  0     0  0
 13 17  1  0     0  0
 14 24  1  0     0  0
 15 25  1  0     0  0
 16 24  1  0     0  0
 17 18  1  0     0  0
 17 19  2  0     0  0
 18 20  2  0     0  0
 18 23  1  0     0  0
 19 21  1  0     0  0
 20 22  1  0     0  0
 21 22  2  0     0  0
 25 26  1  0     0  0
 26 27  1  0     0  0
 27 28  1  0     0  0
M  END
> <standard_type>
pIC50

> <# Confs.>
25

> <canonical_smiles>
ClC(N=C1CCCC)=C(CC2=NN=NN2)N1CC3=CC=CC=C3C4=NN=NN4

> <standard_relation>
=

> <Publication_ID>
nan

> <predicted_activity_value>
5.0

> <actual_activity_value>
5.920818753952375

> <Compound>
15

> <standard_units>
nM

> hash
13619753703845672401

$$$$
15_
XXILIB    08252103513D 0   0.00000     0.00000

 28 31  0     1  0            999 V2000
   -3.5590    0.0029   -1.4785 Cl  0  0  0  0  0  1           0  0  0
    4.7387    0.2323   -3.6049 N   0  0  0  0  0  3           0  0  0
   -0.6371    3.4657   -3.4876 N   0  0  0  0  0  3           0  0  0
    4.4799   -0.8014   -2.8160 N   0  0  0  0  0  3           0  0  0
    0.5392    3.1428   -4.0083 N   0  0  0  0  0  3           0  0  0
    4.2400    1.2952   -2.9601 N   0  0  0  0  0  3           0  0  0
   -1.0752    2.3461   -2.8973 N   0  0  0  0  0  3           0  0  0
    3.8212   -0.4017   -1.6762 N   0  0  0  0  0  3           0  0  0
    0.8503    1.8275   -3.7520 N   0  0  0  0  0  3           0  0  0
    0.0000    0.0000    0.0000 N   0  0  0  0  0  3           0  0  0
   -2.0837   -0.0002    0.7714 N   0  0  0  0  0  3           0  0  0
   -2.0990   -0.0049   -0.5984 C   0  0  0  0  0  4           0  0  0
    3.6781    0.9054   -1.7749 C   0  0  0  0  0  4           0  0  0
   -0.1617    1.3424   -3.0616 C   0  0  0  0  0  4           0  0  0
   -0.8123    0.0000    1.1177 C   0  0  0  0  0  4           0  0  0
   -0.8164   -0.0135   -1.1139 C   0  0  0  0  0  4           0  0  0
    3.0505    1.8059   -0.8388 C   0  0  0  0  0  4           0  0  0
    1.9918    1.3966   -0.0000 C   0  0  0  0  0  4           0  0  0
    3.5280    3.1245   -0.7637 C   0  0  0  0  0  4           0  0  0
    1.4403    2.3305    0.8957 C   0  0  0  0  0  4           0  0  0
    2.9622    4.0362    0.1262 C   0  0  0  0  0  4           0  0  0
    1.9184    3.6399    0.9552 C   0  0  0  0  0  4           0  0  0
    1.4499    0.0000   -0.0000 C   0  0  0  0  0  4           0  0  0
   -0.3358   -0.0232   -2.5209 C   0  0  0  0  0  4           0  0  0
   -0.3185    0.0095    2.5201 C   0  0  0  0  0  4           0  0  0
   -1.0721    1.0062    3.3959 C   0  0  0  0  0  4           0  0  0
   -0.5997    1.0528    4.8497 C   0  0  0  0  0  4           0  0  0
   -1.3916    2.0640    5.6623 C   0  0  0  0  0  4           0  0  0
  1 12  1  0     0  0
  2  4  2  0     0  0
  2  6  1  0     0  0
  3  5  2  0     0  0
  3  7  1  0     0  0
  4  8  1  0     0  0
  5  9  1  0     0  0
  6 13  1  0     0  0
  7 14  1  0     0  0
  8 13  2  0     0  0
  9 14  2  0     0  0
 10 15  1  0     0  0
 10 16  1  0     0  0
 10 23  1  0     0  0
 11 12  1  0     0  0
 11 15  2  0     0  0
 12 16  2  0     0  0
 13 17  1  0     0  0
 14 24  1  0     0  0
 15 25  1  0     0  0
 16 24  1  0     0  0
 17 18  1  0     0  0
 17 19  2  0     0  0
 18 20  2  0     0  0
 18 23  1  0     0  0
 19 21  1  0     0  0
 20 22  1  0     0  0
 21 22  2  0     0  0
 25 26  1  0     0  0
 26 27  1  0     0  0
 27 28  1  0     0  0
M  END
> <standard_type>
pIC50

> <# Confs.>
25

> <canonical_smiles>
ClC(N=C1CCCC)=C(CC2=NN=NN2)N1CC3=CC=CC=C3C4=NN=NN4

> <standard_relation>
=

> <Publication_ID>
nan

> <predicted_activity_value>
5.0

> <actual_activity_value>
5.920818753952375

> <Compound>
15

> <standard_units>
nM

> hash
13619753703845672401

$$$$
15_
XXILIB    08252103513D 0   0.00000     0.00000

 28 31  0     1  0            999 V2000
   -3.5590    0.0029   -1.4785 Cl  0  0  0  0  0  1           0  0  0
    6.3038    0.3848   -0.3633 N   0  0  0  0  0  3           0  0  0
   -0.6127   -3.5256   -3.4454 N   0  0  0  0  0  3           0  0  0
    5.4865    1.1822    0.3106 N   0  0  0  0  0  3           0  0  0
    0.5541   -3.1967   -3.9835 N   0  0  0  0  0  3           0  0  0
    5.6123   -0.7478   -0.5458 N   0  0  0  0  0  3           0  0  0
   -1.0521   -2.4058   -2.8566 N   0  0  0  0  0  3           0  0  0
    4.2823    0.5636    0.5563 N   0  0  0  0  0  3           0  0  0
    0.8572   -1.8769   -3.7408 N   0  0  0  0  0  3           0  0  0
    0.0000    0.0000    0.0000 N   0  0  0  0  0  3           0  0  0
   -2.0837   -0.0002    0.7714 N   0  0  0  0  0  3           0  0  0
   -2.0990   -0.0049   -0.5984 C   0  0  0  0  0  4           0  0  0
    4.3703   -0.6367    0.0178 C   0  0  0  0  0  4           0  0  0
   -0.1484   -1.3962   -3.0382 C   0  0  0  0  0  4           0  0  0
   -0.8123    0.0000    1.1177 C   0  0  0  0  0  4           0  0  0
   -0.8164   -0.0135   -1.1139 C   0  0  0  0  0  4           0  0  0
    3.3744   -1.6802    0.0000 C   0  0  0  0  0  4           0  0  0
    1.9918   -1.3966    0.0000 C   0  0  0  0  0  4           0  0  0
    3.8111   -3.0146   -0.0306 C   0  0  0  0  0  4           0  0  0
    1.0825   -2.4694   -0.0309 C   0  0  0  0  0  4           0  0  0
    2.8927   -4.0631   -0.0536 C   0  0  0  0  0  4           0  0  0
    1.5290   -3.7910   -0.0531 C   0  0  0  0  0  4           0  0  0
    1.4499    0.0000    0.0000 C   0  0  0  0  0  4           0  0  0
   -0.3358   -0.0232   -2.5209 C   0  0  0  0  0  4           0  0  0
   -0.3185    0.0095    2.5201 C   0  0  0  0  0  4           0  0  0
   -0.1340    1.4237    3.0627 C   0  0  0  0  0  4           0  0  0
    0.3733    1.4858    4.5041 C   0  0  0  0  0  4           0  0  0
    0.5337    2.9208    4.9785 C   0  0  0  0  0  4           0  0  0
  1 12  1  0     0  0
  2  4  2  0     0  0
  2  6  1  0     0  0
  3  5  2  0     0  0
  3  7  1  0     0  0
  4  8  1  0     0  0
  5  9  1  0     0  0
  6 13  1  0     0  0
  7 14  1  0     0  0
  8 13  2  0     0  0
  9 14  2  0     0  0
 10 15  1  0     0  0
 10 16  1  0     0  0
 10 23  1  0     0  0
 11 12  1  0     0  0
 11 15  2  0     0  0
 12 16  2  0     0  0
 13 17  1  0     0  0
 14 24  1  0     0  0
 15 25  1  0     0  0
 16 24  1  0     0  0
 17 18  1  0     0  0
 17 19  2  0     0  0
 18 20  2  0     0  0
 18 23  1  0     0  0
 19 21  1  0     0  0
 20 22  1  0     0  0
 21 22  2  0     0  0
 25 26  1  0     0  0
 26 27  1  0     0  0
 27 28  1  0     0  0
M  END
> <standard_type>
pIC50

> <# Confs.>
25

> <canonical_smiles>
ClC(N=C1CCCC)=C(CC2=NN=NN2)N1CC3=CC=CC=C3C4=NN=NN4

> <standard_relation>
=

> <Publication_ID>
nan

> <predicted_activity_value>
5.0

> <actual_activity_value>
5.920818753952375

> <Compound>
15

> <standard_units>
nM

> hash
13619753703845672401

$$$$
15_
XXILIB    08252103513D 0   0.00000     0.00000

 28 31  0     1  0            999 V2000
   -3.5590    0.0029   -1.4785 Cl  0  0  0  0  0  1           0  0  0
    6.3038    0.3848   -0.3633 N   0  0  0  0  0  3           0  0  0
   -0.6127   -3.5256   -3.4454 N   0  0  0  0  0  3           0  0  0
    5.4865    1.1822    0.3106 N   0  0  0  0  0  3           0  0  0
    0.5541   -3.1967   -3.9835 N   0  0  0  0  0  3           0  0  0
    5.6123   -0.7478   -0.5458 N   0  0  0  0  0  3           0  0  0
   -1.0521   -2.4058   -2.8566 N   0  0  0  0  0  3           0  0  0
    4.2823    0.5636    0.5563 N   0  0  0  0  0  3           0  0  0
    0.8572   -1.8769   -3.7408 N   0  0  0  0  0  3           0  0  0
    0.0000    0.0000    0.0000 N   0  0  0  0  0  3           0  0  0
   -2.0837   -0.0002    0.7714 N   0  0  0  0  0  3           0  0  0
   -2.0990   -0.0049   -0.5984 C   0  0  0  0  0  4           0  0  0
    4.3703   -0.6367    0.0178 C   0  0  0  0  0  4           0  0  0
   -0.1484   -1.3962   -3.0382 C   0  0  0  0  0  4           0  0  0
   -0.8123    0.0000    1.1177 C   0  0  0  0  0  4           0  0  0
   -0.8164   -0.0135   -1.1139 C   0  0  0  0  0  4           0  0  0
    3.3744   -1.6802    0.0000 C   0  0  0  0  0  4           0  0  0
    1.9918   -1.3966    0.0000 C   0  0  0  0  0  4           0  0  0
    3.8111   -3.0146   -0.0306 C   0  0  0  0  0  4           0  0  0
    1.0825   -2.4694   -0.0309 C   0  0  0  0  0  4           0  0  0
    2.8927   -4.0631   -0.0536 C   0  0  0  0  0  4           0  0  0
    1.5290   -3.7910   -0.0531 C   0  0  0  0  0  4           0  0  0
    1.4499    0.0000    0.0000 C   0  0  0  0  0  4           0  0  0
   -0.3358   -0.0232   -2.5209 C   0  0  0  0  0  4           0  0  0
   -0.3185    0.0095    2.5201 C   0  0  0  0  0  4           0  0  0
   -0.1340    1.4237    3.0627 C   0  0  0  0  0  4           0  0  0
   -1.4108    2.2652    3.0796 C   0  0  0  0  0  4           0  0  0
   -1.1545    3.6583    3.6306 C   0  0  0  0  0  4           0  0  0
  1 12  1  0     0  0
  2  4  2  0     0  0
  2  6  1  0     0  0
  3  5  2  0     0  0
  3  7  1  0     0  0
  4  8  1  0     0  0
  5  9  1  0     0  0
  6 13  1  0     0  0
  7 14  1  0     0  0
  8 13  2  0     0  0
  9 14  2  0     0  0
 10 15  1  0     0  0
 10 16  1  0     0  0
 10 23  1  0     0  0
 11 12  1  0     0  0
 11 15  2  0     0  0
 12 16  2  0     0  0
 13 17  1  0     0  0
 14 24  1  0     0  0
 15 25  1  0     0  0
 16 24  1  0     0  0
 17 18  1  0     0  0
 17 19  2  0     0  0
 18 20  2  0     0  0
 18 23  1  0     0  0
 19 21  1  0     0  0
 20 22  1  0     0  0
 21 22  2  0     0  0
 25 26  1  0     0  0
 26 27  1  0     0  0
 27 28  1  0     0  0
M  END
> <standard_type>
pIC50

> <# Confs.>
25

> <canonical_smiles>
ClC(N=C1CCCC)=C(CC2=NN=NN2)N1CC3=CC=CC=C3C4=NN=NN4

> <standard_relation>
=

> <Publication_ID>
nan

> <predicted_activity_value>
5.0

> <actual_activity_value>
5.920818753952375

> <Compound>
15

> <standard_units>
nM

> hash
13619753703845672401

$$$$
15_
XXILIB    08252103513D 0   0.00000     0.00000

 28 31  0     1  0            999 V2000
   -3.5590    0.0029   -1.4785 Cl  0  0  0  0  0  1           0  0  0
    6.3008   -0.3739   -0.4404 N   0  0  0  0  0  3           0  0  0
   -0.6371    3.4657   -3.4876 N   0  0  0  0  0  3           0  0  0
    5.4858   -1.1917    0.2112 N   0  0  0  0  0  3           0  0  0
    0.5392    3.1428   -4.0083 N   0  0  0  0  0  3           0  0  0
    5.6090    0.7639   -0.5852 N   0  0  0  0  0  3           0  0  0
   -1.0752    2.3461   -2.8973 N   0  0  0  0  0  3           0  0  0
    4.2828   -0.5808    0.4807 N   0  0  0  0  0  3           0  0  0
    0.8503    1.8275   -3.7520 N   0  0  0  0  0  3           0  0  0
    0.0000    0.0000    0.0000 N   0  0  0  0  0  3           0  0  0
   -2.0837   -0.0002    0.7714 N   0  0  0  0  0  3           0  0  0
   -2.0990   -0.0049   -0.5984 C   0  0  0  0  0  4           0  0  0
    4.3703    0.6367   -0.0178 C   0  0  0  0  0  4           0  0  0
   -0.1617    1.3424   -3.0616 C   0  0  0  0  0  4           0  0  0
   -0.8123    0.0000    1.1177 C   0  0  0  0  0  4           0  0  0
   -0.8164   -0.0135   -1.1139 C   0  0  0  0  0  4           0  0  0
    3.3744    1.6802   -0.0000 C   0  0  0  0  0  4           0  0  0
    1.9918    1.3966    0.0000 C   0  0  0  0  0  4           0  0  0
    3.8111    3.0146    0.0306 C   0  0  0  0  0  4           0  0  0
    1.0825    2.4694    0.0309 C   0  0  0  0  0  4           0  0  0
    2.8927    4.0631    0.0536 C   0  0  0  0  0  4           0  0  0
    1.5290    3.7910    0.0531 C   0  0  0  0  0  4           0  0  0
    1.4499   -0.0000   -0.0000 C   0  0  0  0  0  4           0  0  0
   -0.3358   -0.0232   -2.5209 C   0  0  0  0  0  4           0  0  0
   -0.3185    0.0095    2.5201 C   0  0  0  0  0  4           0  0  0
   -1.4556    0.0070    3.5377 C   0  0  0  0  0  4           0  0  0
   -0.9973    0.0165    4.9967 C   0  0  0  0  0  4           0  0  0
   -2.1784    0.0135    5.9532 C   0  0  0  0  0  4           0  0  0
  1 12  1  0     0  0
  2  4  2  0     0  0
  2  6  1  0     0  0
  3  5  2  0     0  0
  3  7  1  0     0  0
  4  8  1  0     0  0
  5  9  1  0     0  0
  6 13  1  0     0  0
  7 14  1  0     0  0
  8 13  2  0     0  0
  9 14  2  0     0  0
 10 15  1  0     0  0
 10 16  1  0     0  0
 10 23  1  0     0  0
 11 12  1  0     0  0
 11 15  2  0     0  0
 12 16  2  0     0  0
 13 17  1  0     0  0
 14 24  1  0     0  0
 15 25  1  0     0  0
 16 24  1  0     0  0
 17 18  1  0     0  0
 17 19  2  0     0  0
 18 20  2  0     0  0
 18 23  1  0     0  0
 19 21  1  0     0  0
 20 22  1  0     0  0
 21 22  2  0     0  0
 25 26  1  0     0  0
 26 27  1  0     0  0
 27 28  1  0     0  0
M  END
> <standard_type>
pIC50

> <# Confs.>
25

> <canonical_smiles>
ClC(N=C1CCCC)=C(CC2=NN=NN2)N1CC3=CC=CC=C3C4=NN=NN4

> <standard_relation>
=

> <Publication_ID>
nan

> <predicted_activity_value>
5.0

> <actual_activity_value>
5.920818753952375

> <Compound>
15

> <standard_units>
nM

> hash
13619753703845672401

$$$$
15_
XXILIB    08252103513D 0   0.00000     0.00000

 28 31  0     1  0            999 V2000
   -3.5590    0.0029   -1.4785 Cl  0  0  0  0  0  1           0  0  0
    6.3008   -0.3739   -0.4404 N   0  0  0  0  0  3           0  0  0
   -0.6127   -3.5256   -3.4454 N   0  0  0  0  0  3           0  0  0
    5.4858   -1.1917    0.2112 N   0  0  0  0  0  3           0  0  0
    0.5541   -3.1967   -3.9835 N   0  0  0  0  0  3           0  0  0
    5.6090    0.7639   -0.5852 N   0  0  0  0  0  3           0  0  0
   -1.0521   -2.4058   -2.8566 N   0  0  0  0  0  3           0  0  0
    4.2828   -0.5808    0.4807 N   0  0  0  0  0  3           0  0  0
    0.8572   -1.8769   -3.7408 N   0  0  0  0  0  3           0  0  0
    0.0000    0.0000    0.0000 N   0  0  0  0  0  3           0  0  0
   -2.0837   -0.0002    0.7714 N   0  0  0  0  0  3           0  0  0
   -2.0990   -0.0049   -0.5984 C   0  0  0  0  0  4           0  0  0
    4.3703    0.6367   -0.0178 C   0  0  0  0  0  4           0  0  0
   -0.1484   -1.3962   -3.0382 C   0  0  0  0  0  4           0  0  0
   -0.8123    0.0000    1.1177 C   0  0  0  0  0  4           0  0  0
   -0.8164   -0.0135   -1.1139 C   0  0  0  0  0  4           0  0  0
    3.3744    1.6802   -0.0000 C   0  0  0  0  0  4           0  0  0
    1.9918    1.3966    0.0000 C   0  0  0  0  0  4           0  0  0
    3.8111    3.0146    0.0306 C   0  0  0  0  0  4           0  0  0
    1.0825    2.4694    0.0309 C   0  0  0  0  0  4           0  0  0
    2.8927    4.0631    0.0536 C   0  0  0  0  0  4           0  0  0
    1.5290    3.7910    0.0531 C   0  0  0  0  0  4           0  0  0
    1.4499   -0.0000   -0.0000 C   0  0  0  0  0  4           0  0  0
   -0.3358   -0.0232   -2.5209 C   0  0  0  0  0  4           0  0  0
   -0.3185    0.0095    2.5201 C   0  0  0  0  0  4           0  0  0
   -0.1163   -1.3973    3.0756 C   0  0  0  0  0  4           0  0  0
    0.3917   -1.4399    4.5174 C   0  0  0  0  0  4           0  0  0
    0.5700   -2.8684    5.0049 C   0  0  0  0  0  4           0  0  0
  1 12  1  0     0  0
  2  4  2  0     0  0
  2  6  1  0     0  0
  3  5  2  0     0  0
  3  7  1  0     0  0
  4  8  1  0     0  0
  5  9  1  0     0  0
  6 13  1  0     0  0
  7 14  1  0     0  0
  8 13  2  0     0  0
  9 14  2  0     0  0
 10 15  1  0     0  0
 10 16  1  0     0  0
 10 23  1  0     0  0
 11 12  1  0     0  0
 11 15  2  0     0  0
 12 16  2  0     0  0
 13 17  1  0     0  0
 14 24  1  0     0  0
 15 25  1  0     0  0
 16 24  1  0     0  0
 17 18  1  0     0  0
 17 19  2  0     0  0
 18 20  2  0     0  0
 18 23  1  0     0  0
 19 21  1  0     0  0
 20 22  1  0     0  0
 21 22  2  0     0  0
 25 26  1  0     0  0
 26 27  1  0     0  0
 27 28  1  0     0  0
M  END
> <standard_type>
pIC50

> <# Confs.>
25

> <canonical_smiles>
ClC(N=C1CCCC)=C(CC2=NN=NN2)N1CC3=CC=CC=C3C4=NN=NN4

> <standard_relation>
=

> <Publication_ID>
nan

> <predicted_activity_value>
5.0

> <actual_activity_value>
5.920818753952375

> <Compound>
15

> <standard_units>
nM

> hash
13619753703845672401

$$$$
15_
XXILIB    08252103513D 0   0.00000     0.00000

 28 31  0     1  0            999 V2000
   -3.5590    0.0029   -1.4785 Cl  0  0  0  0  0  1           0  0  0
    6.3008   -0.3739   -0.4404 N   0  0  0  0  0  3           0  0  0
   -0.6371    3.4657   -3.4876 N   0  0  0  0  0  3           0  0  0
    5.4858   -1.1917    0.2112 N   0  0  0  0  0  3           0  0  0
    0.5392    3.1428   -4.0083 N   0  0  0  0  0  3           0  0  0
    5.6090    0.7639   -0.5852 N   0  0  0  0  0  3           0  0  0
   -1.0752    2.3461   -2.8973 N   0  0  0  0  0  3           0  0  0
    4.2828   -0.5808    0.4807 N   0  0  0  0  0  3           0  0  0
    0.8503    1.8275   -3.7520 N   0  0  0  0  0  3           0  0  0
    0.0000    0.0000    0.0000 N   0  0  0  0  0  3           0  0  0
   -2.0837   -0.0002    0.7714 N   0  0  0  0  0  3           0  0  0
   -2.0990   -0.0049   -0.5984 C   0  0  0  0  0  4           0  0  0
    4.3703    0.6367   -0.0178 C   0  0  0  0  0  4           0  0  0
   -0.1617    1.3424   -3.0616 C   0  0  0  0  0  4           0  0  0
   -0.8123    0.0000    1.1177 C   0  0  0  0  0  4           0  0  0
   -0.8164   -0.0135   -1.1139 C   0  0  0  0  0  4           0  0  0
    3.3744    1.6802   -0.0000 C   0  0  0  0  0  4           0  0  0
    1.9918    1.3966    0.0000 C   0  0  0  0  0  4           0  0  0
    3.8111    3.0146    0.0306 C   0  0  0  0  0  4           0  0  0
    1.0825    2.4694    0.0309 C   0  0  0  0  0  4           0  0  0
    2.8927    4.0631    0.0536 C   0  0  0  0  0  4           0  0  0
    1.5290    3.7910    0.0531 C   0  0  0  0  0  4           0  0  0
    1.4499   -0.0000   -0.0000 C   0  0  0  0  0  4           0  0  0
   -0.3358   -0.0232   -2.5209 C   0  0  0  0  0  4           0  0  0
   -0.3185    0.0095    2.5201 C   0  0  0  0  0  4           0  0  0
   -1.0721    1.0062    3.3959 C   0  0  0  0  0  4           0  0  0
   -0.9771    2.4583    2.9255 C   0  0  0  0  0  4           0  0  0
   -1.7487    3.3938    3.8416 C   0  0  0  0  0  4           0  0  0
  1 12  1  0     0  0
  2  4  2  0     0  0
  2  6  1  0     0  0
  3  5  2  0     0  0
  3  7  1  0     0  0
  4  8  1  0     0  0
  5  9  1  0     0  0
  6 13  1  0     0  0
  7 14  1  0     0  0
  8 13  2  0     0  0
  9 14  2  0     0  0
 10 15  1  0     0  0
 10 16  1  0     0  0
 10 23  1  0     0  0
 11 12  1  0     0  0
 11 15  2  0     0  0
 12 16  2  0     0  0
 13 17  1  0     0  0
 14 24  1  0     0  0
 15 25  1  0     0  0
 16 24  1  0     0  0
 17 18  1  0     0  0
 17 19  2  0     0  0
 18 20  2  0     0  0
 18 23  1  0     0  0
 19 21  1  0     0  0
 20 22  1  0     0  0
 21 22  2  0     0  0
 25 26  1  0     0  0
 26 27  1  0     0  0
 27 28  1  0     0  0
M  END
> <standard_type>
pIC50

> <# Confs.>
25

> <canonical_smiles>
ClC(N=C1CCCC)=C(CC2=NN=NN2)N1CC3=CC=CC=C3C4=NN=NN4

> <standard_relation>
=

> <Publication_ID>
nan

> <predicted_activity_value>
5.0

> <actual_activity_value>
5.920818753952375

> <Compound>
15

> <standard_units>
nM

> hash
13619753703845672401

$$$$
15_
XXILIB    08252103513D 0   0.00000     0.00000

 28 31  0     1  0            999 V2000
   -3.5590    0.0029   -1.4785 Cl  0  0  0  0  0  1           0  0  0
    4.7387    0.2323   -3.6049 N   0  0  0  0  0  3           0  0  0
   -0.6371    3.4657   -3.4876 N   0  0  0  0  0  3           0  0  0
    4.4799   -0.8014   -2.8160 N   0  0  0  0  0  3           0  0  0
    0.5392    3.1428   -4.0083 N   0  0  0  0  0  3           0  0  0
    4.2400    1.2952   -2.9601 N   0  0  0  0  0  3           0  0  0
   -1.0752    2.3461   -2.8973 N   0  0  0  0  0  3           0  0  0
    3.8212   -0.4017   -1.6762 N   0  0  0  0  0  3           0  0  0
    0.8503    1.8275   -3.7520 N   0  0  0  0  0  3           0  0  0
    0.0000    0.0000    0.0000 N   0  0  0  0  0  3           0  0  0
   -2.0837   -0.0002    0.7714 N   0  0  0  0  0  3           0  0  0
   -2.0990   -0.0049   -0.5984 C   0  0  0  0  0  4           0  0  0
    3.6781    0.9054   -1.7749 C   0  0  0  0  0  4           0  0  0
   -0.1617    1.3424   -3.0616 C   0  0  0  0  0  4           0  0  0
   -0.8123    0.0000    1.1177 C   0  0  0  0  0  4           0  0  0
   -0.8164   -0.0135   -1.1139 C   0  0  0  0  0  4           0  0  0
    3.0505    1.8059   -0.8388 C   0  0  0  0  0  4           0  0  0
    1.9918    1.3966   -0.0000 C   0  0  0  0  0  4           0  0  0
    3.5280    3.1245   -0.7637 C   0  0  0  0  0  4           0  0  0
    1.4403    2.3305    0.8957 C   0  0  0  0  0  4           0  0  0
    2.9622    4.0362    0.1262 C   0  0  0  0  0  4           0  0  0
    1.9184    3.6399    0.9552 C   0  0  0  0  0  4           0  0  0
    1.4499    0.0000   -0.0000 C   0  0  0  0  0  4           0  0  0
   -0.3358   -0.0232   -2.5209 C   0  0  0  0  0  4           0  0  0
   -0.3185    0.0095    2.5201 C   0  0  0  0  0  4           0  0  0
   -0.1163   -1.3973    3.0756 C   0  0  0  0  0  4           0  0  0
    0.3917   -1.4399    4.5174 C   0  0  0  0  0  4           0  0  0
    0.5700   -2.8684    5.0049 C   0  0  0  0  0  4           0  0  0
  1 12  1  0     0  0
  2  4  2  0     0  0
  2  6  1  0     0  0
  3  5  2  0     0  0
  3  7  1  0     0  0
  4  8  1  0     0  0
  5  9  1  0     0  0
  6 13  1  0     0  0
  7 14  1  0     0  0
  8 13  2  0     0  0
  9 14  2  0     0  0
 10 15  1  0     0  0
 10 16  1  0     0  0
 10 23  1  0     0  0
 11 12  1  0     0  0
 11 15  2  0     0  0
 12 16  2  0     0  0
 13 17  1  0     0  0
 14 24  1  0     0  0
 15 25  1  0     0  0
 16 24  1  0     0  0
 17 18  1  0     0  0
 17 19  2  0     0  0
 18 20  2  0     0  0
 18 23  1  0     0  0
 19 21  1  0     0  0
 20 22  1  0     0  0
 21 22  2  0     0  0
 25 26  1  0     0  0
 26 27  1  0     0  0
 27 28  1  0     0  0
M  END
> <standard_type>
pIC50

> <# Confs.>
25

> <canonical_smiles>
ClC(N=C1CCCC)=C(CC2=NN=NN2)N1CC3=CC=CC=C3C4=NN=NN4

> <standard_relation>
=

> <Publication_ID>
nan

> <predicted_activity_value>
5.0

> <actual_activity_value>
5.920818753952375

> <Compound>
15

> <standard_units>
nM

> hash
13619753703845672401

$$$$
15_
XXILIB    08252103513D 0   0.00000     0.00000

 28 31  0     1  0            999 V2000
   -3.5590    0.0029   -1.4785 Cl  0  0  0  0  0  1           0  0  0
    6.3038    0.3848   -0.3633 N   0  0  0  0  0  3           0  0  0
   -0.6371    3.4657   -3.4876 N   0  0  0  0  0  3           0  0  0
    5.4865    1.1822    0.3106 N   0  0  0  0  0  3           0  0  0
    0.5392    3.1428   -4.0083 N   0  0  0  0  0  3           0  0  0
    5.6123   -0.7478   -0.5458 N   0  0  0  0  0  3           0  0  0
   -1.0752    2.3461   -2.8973 N   0  0  0  0  0  3           0  0  0
    4.2823    0.5636    0.5563 N   0  0  0  0  0  3           0  0  0
    0.8503    1.8275   -3.7520 N   0  0  0  0  0  3           0  0  0
    0.0000    0.0000    0.0000 N   0  0  0  0  0  3           0  0  0
   -2.0837   -0.0002    0.7714 N   0  0  0  0  0  3           0  0  0
   -2.0990   -0.0049   -0.5984 C   0  0  0  0  0  4           0  0  0
    4.3703   -0.6367    0.0178 C   0  0  0  0  0  4           0  0  0
   -0.1617    1.3424   -3.0616 C   0  0  0  0  0  4           0  0  0
   -0.8123    0.0000    1.1177 C   0  0  0  0  0  4           0  0  0
   -0.8164   -0.0135   -1.1139 C   0  0  0  0  0  4           0  0  0
    3.3744   -1.6802    0.0000 C   0  0  0  0  0  4           0  0  0
    1.9918   -1.3966    0.0000 C   0  0  0  0  0  4           0  0  0
    3.8111   -3.0146   -0.0306 C   0  0  0  0  0  4           0  0  0
    1.0825   -2.4694   -0.0309 C   0  0  0  0  0  4           0  0  0
    2.8927   -4.0631   -0.0536 C   0  0  0  0  0  4           0  0  0
    1.5290   -3.7910   -0.0531 C   0  0  0  0  0  4           0  0  0
    1.4499    0.0000    0.0000 C   0  0  0  0  0  4           0  0  0
   -0.3358   -0.0232   -2.5209 C   0  0  0  0  0  4           0  0  0
   -0.3185    0.0095    2.5201 C   0  0  0  0  0  4           0  0  0
   -0.1340    1.4237    3.0627 C   0  0  0  0  0  4           0  0  0
    0.3733    1.4858    4.5041 C   0  0  0  0  0  4           0  0  0
    0.5337    2.9208    4.9785 C   0  0  0  0  0  4           0  0  0
  1 12  1  0     0  0
  2  4  2  0     0  0
  2  6  1  0     0  0
  3  5  2  0     0  0
  3  7  1  0     0  0
  4  8  1  0     0  0
  5  9  1  0     0  0
  6 13  1  0     0  0
  7 14  1  0     0  0
  8 13  2  0     0  0
  9 14  2  0     0  0
 10 15  1  0     0  0
 10 16  1  0     0  0
 10 23  1  0     0  0
 11 12  1  0     0  0
 11 15  2  0     0  0
 12 16  2  0     0  0
 13 17  1  0     0  0
 14 24  1  0     0  0
 15 25  1  0     0  0
 16 24  1  0     0  0
 17 18  1  0     0  0
 17 19  2  0     0  0
 18 20  2  0     0  0
 18 23  1  0     0  0
 19 21  1  0     0  0
 20 22  1  0     0  0
 21 22  2  0     0  0
 25 26  1  0     0  0
 26 27  1  0     0  0
 27 28  1  0     0  0
M  END
> <standard_type>
pIC50

> <# Confs.>
25

> <canonical_smiles>
ClC(N=C1CCCC)=C(CC2=NN=NN2)N1CC3=CC=CC=C3C4=NN=NN4

> <standard_relation>
=

> <Publication_ID>
nan

> <predicted_activity_value>
5.0

> <actual_activity_value>
5.920818753952375

> <Compound>
15

> <standard_units>
nM

> hash
13619753703845672401

$$$$
15_
XXILIB    08252103513D 0   0.00000     0.00000

 28 31  0     1  0            999 V2000
   -3.5590    0.0029   -1.4785 Cl  0  0  0  0  0  1           0  0  0
    6.3008   -0.3739   -0.4404 N   0  0  0  0  0  3           0  0  0
   -0.6127   -3.5256   -3.4454 N   0  0  0  0  0  3           0  0  0
    5.4858   -1.1917    0.2112 N   0  0  0  0  0  3           0  0  0
    0.5541   -3.1967   -3.9835 N   0  0  0  0  0  3           0  0  0
    5.6090    0.7639   -0.5852 N   0  0  0  0  0  3           0  0  0
   -1.0521   -2.4058   -2.8566 N   0  0  0  0  0  3           0  0  0
    4.2828   -0.5808    0.4807 N   0  0  0  0  0  3           0  0  0
    0.8572   -1.8769   -3.7408 N   0  0  0  0  0  3           0  0  0
    0.0000    0.0000    0.0000 N   0  0  0  0  0  3           0  0  0
   -2.0837   -0.0002    0.7714 N   0  0  0  0  0  3           0  0  0
   -2.0990   -0.0049   -0.5984 C   0  0  0  0  0  4           0  0  0
    4.3703    0.6367   -0.0178 C   0  0  0  0  0  4           0  0  0
   -0.1484   -1.3962   -3.0382 C   0  0  0  0  0  4           0  0  0
   -0.8123    0.0000    1.1177 C   0  0  0  0  0  4           0  0  0
   -0.8164   -0.0135   -1.1139 C   0  0  0  0  0  4           0  0  0
    3.3744    1.6802   -0.0000 C   0  0  0  0  0  4           0  0  0
    1.9918    1.3966    0.0000 C   0  0  0  0  0  4           0  0  0
    3.8111    3.0146    0.0306 C   0  0  0  0  0  4           0  0  0
    1.0825    2.4694    0.0309 C   0  0  0  0  0  4           0  0  0
    2.8927    4.0631    0.0536 C   0  0  0  0  0  4           0  0  0
    1.5290    3.7910    0.0531 C   0  0  0  0  0  4           0  0  0
    1.4499   -0.0000   -0.0000 C   0  0  0  0  0  4           0  0  0
   -0.3358   -0.0232   -2.5209 C   0  0  0  0  0  4           0  0  0
   -0.3185    0.0095    2.5201 C   0  0  0  0  0  4           0  0  0
   -0.1163   -1.3973    3.0756 C   0  0  0  0  0  4           0  0  0
   -1.3825   -2.2546    3.1002 C   0  0  0  0  0  4           0  0  0
   -1.1088   -3.6392    3.6638 C   0  0  0  0  0  4           0  0  0
  1 12  1  0     0  0
  2  4  2  0     0  0
  2  6  1  0     0  0
  3  5  2  0     0  0
  3  7  1  0     0  0
  4  8  1  0     0  0
  5  9  1  0     0  0
  6 13  1  0     0  0
  7 14  1  0     0  0
  8 13  2  0     0  0
  9 14  2  0     0  0
 10 15  1  0     0  0
 10 16  1  0     0  0
 10 23  1  0     0  0
 11 12  1  0     0  0
 11 15  2  0     0  0
 12 16  2  0     0  0
 13 17  1  0     0  0
 14 24  1  0     0  0
 15 25  1  0     0  0
 16 24  1  0     0  0
 17 18  1  0     0  0
 17 19  2  0     0  0
 18 20  2  0     0  0
 18 23  1  0     0  0
 19 21  1  0     0  0
 20 22  1  0     0  0
 21 22  2  0     0  0
 25 26  1  0     0  0
 26 27  1  0     0  0
 27 28  1  0     0  0
M  END
> <standard_type>
pIC50

> <# Confs.>
25

> <canonical_smiles>
ClC(N=C1CCCC)=C(CC2=NN=NN2)N1CC3=CC=CC=C3C4=NN=NN4

> <standard_relation>
=

> <Publication_ID>
nan

> <predicted_activity_value>
5.0

> <actual_activity_value>
5.920818753952375

> <Compound>
15

> <standard_units>
nM

> hash
13619753703845672401

$$$$
15_
XXILIB    08252103513D 0   0.00000     0.00000

 28 31  0     1  0            999 V2000
   -3.5590    0.0029   -1.4785 Cl  0  0  0  0  0  1           0  0  0
    6.3038    0.3848   -0.3633 N   0  0  0  0  0  3           0  0  0
   -0.6127   -3.5256   -3.4454 N   0  0  0  0  0  3           0  0  0
    5.4865    1.1822    0.3106 N   0  0  0  0  0  3           0  0  0
    0.5541   -3.1967   -3.9835 N   0  0  0  0  0  3           0  0  0
    5.6123   -0.7478   -0.5458 N   0  0  0  0  0  3           0  0  0
   -1.0521   -2.4058   -2.8566 N   0  0  0  0  0  3           0  0  0
    4.2823    0.5636    0.5563 N   0  0  0  0  0  3           0  0  0
    0.8572   -1.8769   -3.7408 N   0  0  0  0  0  3           0  0  0
    0.0000    0.0000    0.0000 N   0  0  0  0  0  3           0  0  0
   -2.0837   -0.0002    0.7714 N   0  0  0  0  0  3           0  0  0
   -2.0990   -0.0049   -0.5984 C   0  0  0  0  0  4           0  0  0
    4.3703   -0.6367    0.0178 C   0  0  0  0  0  4           0  0  0
   -0.1484   -1.3962   -3.0382 C   0  0  0  0  0  4           0  0  0
   -0.8123    0.0000    1.1177 C   0  0  0  0  0  4           0  0  0
   -0.8164   -0.0135   -1.1139 C   0  0  0  0  0  4           0  0  0
    3.3744   -1.6802    0.0000 C   0  0  0  0  0  4           0  0  0
    1.9918   -1.3966    0.0000 C   0  0  0  0  0  4           0  0  0
    3.8111   -3.0146   -0.0306 C   0  0  0  0  0  4           0  0  0
    1.0825   -2.4694   -0.0309 C   0  0  0  0  0  4           0  0  0
    2.8927   -4.0631   -0.0536 C   0  0  0  0  0  4           0  0  0
    1.5290   -3.7910   -0.0531 C   0  0  0  0  0  4           0  0  0
    1.4499    0.0000    0.0000 C   0  0  0  0  0  4           0  0  0
   -0.3358   -0.0232   -2.5209 C   0  0  0  0  0  4           0  0  0
   -0.3185    0.0095    2.5201 C   0  0  0  0  0  4           0  0  0
   -1.0596   -0.9886    3.4050 C   0  0  0  0  0  4           0  0  0
   -0.9464   -2.4436    2.9479 C   0  0  0  0  0  4           0  0  0
   -1.7062   -3.3804    3.8724 C   0  0  0  0  0  4           0  0  0
  1 12  1  0     0  0
  2  4  2  0     0  0
  2  6  1  0     0  0
  3  5  2  0     0  0
  3  7  1  0     0  0
  4  8  1  0     0  0
  5  9  1  0     0  0
  6 13  1  0     0  0
  7 14  1  0     0  0
  8 13  2  0     0  0
  9 14  2  0     0  0
 10 15  1  0     0  0
 10 16  1  0     0  0
 10 23  1  0     0  0
 11 12  1  0     0  0
 11 15  2  0     0  0
 12 16  2  0     0  0
 13 17  1  0     0  0
 14 24  1  0     0  0
 15 25  1  0     0  0
 16 24  1  0     0  0
 17 18  1  0     0  0
 17 19  2  0     0  0
 18 20  2  0     0  0
 18 23  1  0     0  0
 19 21  1  0     0  0
 20 22  1  0     0  0
 21 22  2  0     0  0
 25 26  1  0     0  0
 26 27  1  0     0  0
 27 28  1  0     0  0
M  END
> <standard_type>
pIC50

> <# Confs.>
25

> <canonical_smiles>
ClC(N=C1CCCC)=C(CC2=NN=NN2)N1CC3=CC=CC=C3C4=NN=NN4

> <standard_relation>
=

> <Publication_ID>
nan

> <predicted_activity_value>
5.0

> <actual_activity_value>
5.920818753952375

> <Compound>
15

> <standard_units>
nM

> hash
13619753703845672401

$$$$
15_
XXILIB    08252103513D 0   0.00000     0.00000

 28 31  0     1  0            999 V2000
   -3.5590    0.0029   -1.4785 Cl  0  0  0  0  0  1           0  0  0
    6.3038    0.3848   -0.3633 N   0  0  0  0  0  3           0  0  0
   -0.6371    3.4657   -3.4876 N   0  0  0  0  0  3           0  0  0
    5.4865    1.1822    0.3106 N   0  0  0  0  0  3           0  0  0
    0.5392    3.1428   -4.0083 N   0  0  0  0  0  3           0  0  0
    5.6123   -0.7478   -0.5458 N   0  0  0  0  0  3           0  0  0
   -1.0752    2.3461   -2.8973 N   0  0  0  0  0  3           0  0  0
    4.2823    0.5636    0.5563 N   0  0  0  0  0  3           0  0  0
    0.8503    1.8275   -3.7520 N   0  0  0  0  0  3           0  0  0
    0.0000    0.0000    0.0000 N   0  0  0  0  0  3           0  0  0
   -2.0837   -0.0002    0.7714 N   0  0  0  0  0  3           0  0  0
   -2.0990   -0.0049   -0.5984 C   0  0  0  0  0  4           0  0  0
    4.3703   -0.6367    0.0178 C   0  0  0  0  0  4           0  0  0
   -0.1617    1.3424   -3.0616 C   0  0  0  0  0  4           0  0  0
   -0.8123    0.0000    1.1177 C   0  0  0  0  0  4           0  0  0
   -0.8164   -0.0135   -1.1139 C   0  0  0  0  0  4           0  0  0
    3.3744   -1.6802    0.0000 C   0  0  0  0  0  4           0  0  0
    1.9918   -1.3966    0.0000 C   0  0  0  0  0  4           0  0  0
    3.8111   -3.0146   -0.0306 C   0  0  0  0  0  4           0  0  0
    1.0825   -2.4694   -0.0309 C   0  0  0  0  0  4           0  0  0
    2.8927   -4.0631   -0.0536 C   0  0  0  0  0  4           0  0  0
    1.5290   -3.7910   -0.0531 C   0  0  0  0  0  4           0  0  0
    1.4499    0.0000    0.0000 C   0  0  0  0  0  4           0  0  0
   -0.3358   -0.0232   -2.5209 C   0  0  0  0  0  4           0  0  0
   -0.3185    0.0095    2.5201 C   0  0  0  0  0  4           0  0  0
   -0.1340    1.4237    3.0627 C   0  0  0  0  0  4           0  0  0
   -1.4108    2.2652    3.0796 C   0  0  0  0  0  4           0  0  0
   -1.1545    3.6583    3.6306 C   0  0  0  0  0  4           0  0  0
  1 12  1  0     0  0
  2  4  2  0     0  0
  2  6  1  0     0  0
  3  5  2  0     0  0
  3  7  1  0     0  0
  4  8  1  0     0  0
  5  9  1  0     0  0
  6 13  1  0     0  0
  7 14  1  0     0  0
  8 13  2  0     0  0
  9 14  2  0     0  0
 10 15  1  0     0  0
 10 16  1  0     0  0
 10 23  1  0     0  0
 11 12  1  0     0  0
 11 15  2  0     0  0
 12 16  2  0     0  0
 13 17  1  0     0  0
 14 24  1  0     0  0
 15 25  1  0     0  0
 16 24  1  0     0  0
 17 18  1  0     0  0
 17 19  2  0     0  0
 18 20  2  0     0  0
 18 23  1  0     0  0
 19 21  1  0     0  0
 20 22  1  0     0  0
 21 22  2  0     0  0
 25 26  1  0     0  0
 26 27  1  0     0  0
 27 28  1  0     0  0
M  END
> <standard_type>
pIC50

> <# Confs.>
25

> <canonical_smiles>
ClC(N=C1CCCC)=C(CC2=NN=NN2)N1CC3=CC=CC=C3C4=NN=NN4

> <standard_relation>
=

> <Publication_ID>
nan

> <predicted_activity_value>
5.0

> <actual_activity_value>
5.920818753952375

> <Compound>
15

> <standard_units>
nM

> hash
13619753703845672401

$$$$
15_
XXILIB    08252103513D 0   0.00000     0.00000

 28 31  0     1  0            999 V2000
   -3.5590    0.0029   -1.4785 Cl  0  0  0  0  0  1           0  0  0
    6.3038    0.3848   -0.3633 N   0  0  0  0  0  3           0  0  0
   -0.6127   -3.5256   -3.4454 N   0  0  0  0  0  3           0  0  0
    5.4865    1.1822    0.3106 N   0  0  0  0  0  3           0  0  0
    0.5541   -3.1967   -3.9835 N   0  0  0  0  0  3           0  0  0
    5.6123   -0.7478   -0.5458 N   0  0  0  0  0  3           0  0  0
   -1.0521   -2.4058   -2.8566 N   0  0  0  0  0  3           0  0  0
    4.2823    0.5636    0.5563 N   0  0  0  0  0  3           0  0  0
    0.8572   -1.8769   -3.7408 N   0  0  0  0  0  3           0  0  0
    0.0000    0.0000    0.0000 N   0  0  0  0  0  3           0  0  0
   -2.0837   -0.0002    0.7714 N   0  0  0  0  0  3           0  0  0
   -2.0990   -0.0049   -0.5984 C   0  0  0  0  0  4           0  0  0
    4.3703   -0.6367    0.0178 C   0  0  0  0  0  4           0  0  0
   -0.1484   -1.3962   -3.0382 C   0  0  0  0  0  4           0  0  0
   -0.8123    0.0000    1.1177 C   0  0  0  0  0  4           0  0  0
   -0.8164   -0.0135   -1.1139 C   0  0  0  0  0  4           0  0  0
    3.3744   -1.6802    0.0000 C   0  0  0  0  0  4           0  0  0
    1.9918   -1.3966    0.0000 C   0  0  0  0  0  4           0  0  0
    3.8111   -3.0146   -0.0306 C   0  0  0  0  0  4           0  0  0
    1.0825   -2.4694   -0.0309 C   0  0  0  0  0  4           0  0  0
    2.8927   -4.0631   -0.0536 C   0  0  0  0  0  4           0  0  0
    1.5290   -3.7910   -0.0531 C   0  0  0  0  0  4           0  0  0
    1.4499    0.0000    0.0000 C   0  0  0  0  0  4           0  0  0
   -0.3358   -0.0232   -2.5209 C   0  0  0  0  0  4           0  0  0
   -0.3185    0.0095    2.5201 C   0  0  0  0  0  4           0  0  0
   -1.4556    0.0070    3.5377 C   0  0  0  0  0  4           0  0  0
   -0.9973    0.0165    4.9967 C   0  0  0  0  0  4           0  0  0
   -2.1784    0.0135    5.9532 C   0  0  0  0  0  4           0  0  0
  1 12  1  0     0  0
  2  4  2  0     0  0
  2  6  1  0     0  0
  3  5  2  0     0  0
  3  7  1  0     0  0
  4  8  1  0     0  0
  5  9  1  0     0  0
  6 13  1  0     0  0
  7 14  1  0     0  0
  8 13  2  0     0  0
  9 14  2  0     0  0
 10 15  1  0     0  0
 10 16  1  0     0  0
 10 23  1  0     0  0
 11 12  1  0     0  0
 11 15  2  0     0  0
 12 16  2  0     0  0
 13 17  1  0     0  0
 14 24  1  0     0  0
 15 25  1  0     0  0
 16 24  1  0     0  0
 17 18  1  0     0  0
 17 19  2  0     0  0
 18 20  2  0     0  0
 18 23  1  0     0  0
 19 21  1  0     0  0
 20 22  1  0     0  0
 21 22  2  0     0  0
 25 26  1  0     0  0
 26 27  1  0     0  0
 27 28  1  0     0  0
M  END
> <standard_type>
pIC50

> <# Confs.>
25

> <canonical_smiles>
ClC(N=C1CCCC)=C(CC2=NN=NN2)N1CC3=CC=CC=C3C4=NN=NN4

> <standard_relation>
=

> <Publication_ID>
nan

> <predicted_activity_value>
5.0

> <actual_activity_value>
5.920818753952375

> <Compound>
15

> <standard_units>
nM

> hash
13619753703845672401

$$$$
15_
XXILIB    08252103513D 0   0.00000     0.00000

 28 31  0     1  0            999 V2000
   -3.5590    0.0029   -1.4785 Cl  0  0  0  0  0  1           0  0  0
    6.3008   -0.3739   -0.4404 N   0  0  0  0  0  3           0  0  0
   -0.6127   -3.5256   -3.4454 N   0  0  0  0  0  3           0  0  0
    5.4858   -1.1917    0.2112 N   0  0  0  0  0  3           0  0  0
    0.5541   -3.1967   -3.9835 N   0  0  0  0  0  3           0  0  0
    5.6090    0.7639   -0.5852 N   0  0  0  0  0  3           0  0  0
   -1.0521   -2.4058   -2.8566 N   0  0  0  0  0  3           0  0  0
    4.2828   -0.5808    0.4807 N   0  0  0  0  0  3           0  0  0
    0.8572   -1.8769   -3.7408 N   0  0  0  0  0  3           0  0  0
    0.0000    0.0000    0.0000 N   0  0  0  0  0  3           0  0  0
   -2.0837   -0.0002    0.7714 N   0  0  0  0  0  3           0  0  0
   -2.0990   -0.0049   -0.5984 C   0  0  0  0  0  4           0  0  0
    4.3703    0.6367   -0.0178 C   0  0  0  0  0  4           0  0  0
   -0.1484   -1.3962   -3.0382 C   0  0  0  0  0  4           0  0  0
   -0.8123    0.0000    1.1177 C   0  0  0  0  0  4           0  0  0
   -0.8164   -0.0135   -1.1139 C   0  0  0  0  0  4           0  0  0
    3.3744    1.6802   -0.0000 C   0  0  0  0  0  4           0  0  0
    1.9918    1.3966    0.0000 C   0  0  0  0  0  4           0  0  0
    3.8111    3.0146    0.0306 C   0  0  0  0  0  4           0  0  0
    1.0825    2.4694    0.0309 C   0  0  0  0  0  4           0  0  0
    2.8927    4.0631    0.0536 C   0  0  0  0  0  4           0  0  0
    1.5290    3.7910    0.0531 C   0  0  0  0  0  4           0  0  0
    1.4499   -0.0000   -0.0000 C   0  0  0  0  0  4           0  0  0
   -0.3358   -0.0232   -2.5209 C   0  0  0  0  0  4           0  0  0
   -0.3185    0.0095    2.5201 C   0  0  0  0  0  4           0  0  0
   -1.4556    0.0070    3.5377 C   0  0  0  0  0  4           0  0  0
   -0.9973    0.0165    4.9967 C   0  0  0  0  0  4           0  0  0
   -2.1784    0.0135    5.9532 C   0  0  0  0  0  4           0  0  0
  1 12  1  0     0  0
  2  4  2  0     0  0
  2  6  1  0     0  0
  3  5  2  0     0  0
  3  7  1  0     0  0
  4  8  1  0     0  0
  5  9  1  0     0  0
  6 13  1  0     0  0
  7 14  1  0     0  0
  8 13  2  0     0  0
  9 14  2  0     0  0
 10 15  1  0     0  0
 10 16  1  0     0  0
 10 23  1  0     0  0
 11 12  1  0     0  0
 11 15  2  0     0  0
 12 16  2  0     0  0
 13 17  1  0     0  0
 14 24  1  0     0  0
 15 25  1  0     0  0
 16 24  1  0     0  0
 17 18  1  0     0  0
 17 19  2  0     0  0
 18 20  2  0     0  0
 18 23  1  0     0  0
 19 21  1  0     0  0
 20 22  1  0     0  0
 21 22  2  0     0  0
 25 26  1  0     0  0
 26 27  1  0     0  0
 27 28  1  0     0  0
M  END
> <standard_type>
pIC50

> <# Confs.>
25

> <canonical_smiles>
ClC(N=C1CCCC)=C(CC2=NN=NN2)N1CC3=CC=CC=C3C4=NN=NN4

> <standard_relation>
=

> <Publication_ID>
nan

> <predicted_activity_value>
5.0

> <actual_activity_value>
5.920818753952375

> <Compound>
15

> <standard_units>
nM

> hash
13619753703845672401

$$$$
15_
XXILIB    08252103513D 0   0.00000     0.00000

 28 31  0     1  0            999 V2000
   -3.5590    0.0029   -1.4785 Cl  0  0  0  0  0  1           0  0  0
    6.3038    0.3848   -0.3633 N   0  0  0  0  0  3           0  0  0
   -0.6371    3.4657   -3.4876 N   0  0  0  0  0  3           0  0  0
    5.4865    1.1822    0.3106 N   0  0  0  0  0  3           0  0  0
    0.5392    3.1428   -4.0083 N   0  0  0  0  0  3           0  0  0
    5.6123   -0.7478   -0.5458 N   0  0  0  0  0  3           0  0  0
   -1.0752    2.3461   -2.8973 N   0  0  0  0  0  3           0  0  0
    4.2823    0.5636    0.5563 N   0  0  0  0  0  3           0  0  0
    0.8503    1.8275   -3.7520 N   0  0  0  0  0  3           0  0  0
    0.0000    0.0000    0.0000 N   0  0  0  0  0  3           0  0  0
   -2.0837   -0.0002    0.7714 N   0  0  0  0  0  3           0  0  0
   -2.0990   -0.0049   -0.5984 C   0  0  0  0  0  4           0  0  0
    4.3703   -0.6367    0.0178 C   0  0  0  0  0  4           0  0  0
   -0.1617    1.3424   -3.0616 C   0  0  0  0  0  4           0  0  0
   -0.8123    0.0000    1.1177 C   0  0  0  0  0  4           0  0  0
   -0.8164   -0.0135   -1.1139 C   0  0  0  0  0  4           0  0  0
    3.3744   -1.6802    0.0000 C   0  0  0  0  0  4           0  0  0
    1.9918   -1.3966    0.0000 C   0  0  0  0  0  4           0  0  0
    3.8111   -3.0146   -0.0306 C   0  0  0  0  0  4           0  0  0
    1.0825   -2.4694   -0.0309 C   0  0  0  0  0  4           0  0  0
    2.8927   -4.0631   -0.0536 C   0  0  0  0  0  4           0  0  0
    1.5290   -3.7910   -0.0531 C   0  0  0  0  0  4           0  0  0
    1.4499    0.0000    0.0000 C   0  0  0  0  0  4           0  0  0
   -0.3358   -0.0232   -2.5209 C   0  0  0  0  0  4           0  0  0
   -0.3185    0.0095    2.5201 C   0  0  0  0  0  4           0  0  0
   -1.4556    0.0070    3.5377 C   0  0  0  0  0  4           0  0  0
   -0.9973    0.0165    4.9967 C   0  0  0  0  0  4           0  0  0
   -2.1784    0.0135    5.9532 C   0  0  0  0  0  4           0  0  0
  1 12  1  0     0  0
  2  4  2  0     0  0
  2  6  1  0     0  0
  3  5  2  0     0  0
  3  7  1  0     0  0
  4  8  1  0     0  0
  5  9  1  0     0  0
  6 13  1  0     0  0
  7 14  1  0     0  0
  8 13  2  0     0  0
  9 14  2  0     0  0
 10 15  1  0     0  0
 10 16  1  0     0  0
 10 23  1  0     0  0
 11 12  1  0     0  0
 11 15  2  0     0  0
 12 16  2  0     0  0
 13 17  1  0     0  0
 14 24  1  0     0  0
 15 25  1  0     0  0
 16 24  1  0     0  0
 17 18  1  0     0  0
 17 19  2  0     0  0
 18 20  2  0     0  0
 18 23  1  0     0  0
 19 21  1  0     0  0
 20 22  1  0     0  0
 21 22  2  0     0  0
 25 26  1  0     0  0
 26 27  1  0     0  0
 27 28  1  0     0  0
M  END
> <standard_type>
pIC50

> <# Confs.>
25

> <canonical_smiles>
ClC(N=C1CCCC)=C(CC2=NN=NN2)N1CC3=CC=CC=C3C4=NN=NN4

> <standard_relation>
=

> <Publication_ID>
nan

> <predicted_activity_value>
5.0

> <actual_activity_value>
5.920818753952375

> <Compound>
15

> <standard_units>
nM

> hash
13619753703845672401

$$$$
15_
XXILIB    08252103513D 0   0.00000     0.00000

 28 31  0     1  0            999 V2000
   -3.5590    0.0029   -1.4785 Cl  0  0  0  0  0  1           0  0  0
    6.3038    0.3848   -0.3633 N   0  0  0  0  0  3           0  0  0
   -0.6371    3.4657   -3.4876 N   0  0  0  0  0  3           0  0  0
    5.4865    1.1822    0.3106 N   0  0  0  0  0  3           0  0  0
    0.5392    3.1428   -4.0083 N   0  0  0  0  0  3           0  0  0
    5.6123   -0.7478   -0.5458 N   0  0  0  0  0  3           0  0  0
   -1.0752    2.3461   -2.8973 N   0  0  0  0  0  3           0  0  0
    4.2823    0.5636    0.5563 N   0  0  0  0  0  3           0  0  0
    0.8503    1.8275   -3.7520 N   0  0  0  0  0  3           0  0  0
    0.0000    0.0000    0.0000 N   0  0  0  0  0  3           0  0  0
   -2.0837   -0.0002    0.7714 N   0  0  0  0  0  3           0  0  0
   -2.0990   -0.0049   -0.5984 C   0  0  0  0  0  4           0  0  0
    4.3703   -0.6367    0.0178 C   0  0  0  0  0  4           0  0  0
   -0.1617    1.3424   -3.0616 C   0  0  0  0  0  4           0  0  0
   -0.8123    0.0000    1.1177 C   0  0  0  0  0  4           0  0  0
   -0.8164   -0.0135   -1.1139 C   0  0  0  0  0  4           0  0  0
    3.3744   -1.6802    0.0000 C   0  0  0  0  0  4           0  0  0
    1.9918   -1.3966    0.0000 C   0  0  0  0  0  4           0  0  0
    3.8111   -3.0146   -0.0306 C   0  0  0  0  0  4           0  0  0
    1.0825   -2.4694   -0.0309 C   0  0  0  0  0  4           0  0  0
    2.8927   -4.0631   -0.0536 C   0  0  0  0  0  4           0  0  0
    1.5290   -3.7910   -0.0531 C   0  0  0  0  0  4           0  0  0
    1.4499    0.0000    0.0000 C   0  0  0  0  0  4           0  0  0
   -0.3358   -0.0232   -2.5209 C   0  0  0  0  0  4           0  0  0
   -0.3185    0.0095    2.5201 C   0  0  0  0  0  4           0  0  0
   -1.0596   -0.9886    3.4050 C   0  0  0  0  0  4           0  0  0
   -0.9464   -2.4436    2.9479 C   0  0  0  0  0  4           0  0  0
   -1.7062   -3.3804    3.8724 C   0  0  0  0  0  4           0  0  0
  1 12  1  0     0  0
  2  4  2  0     0  0
  2  6  1  0     0  0
  3  5  2  0     0  0
  3  7  1  0     0  0
  4  8  1  0     0  0
  5  9  1  0     0  0
  6 13  1  0     0  0
  7 14  1  0     0  0
  8 13  2  0     0  0
  9 14  2  0     0  0
 10 15  1  0     0  0
 10 16  1  0     0  0
 10 23  1  0     0  0
 11 12  1  0     0  0
 11 15  2  0     0  0
 12 16  2  0     0  0
 13 17  1  0     0  0
 14 24  1  0     0  0
 15 25  1  0     0  0
 16 24  1  0     0  0
 17 18  1  0     0  0
 17 19  2  0     0  0
 18 20  2  0     0  0
 18 23  1  0     0  0
 19 21  1  0     0  0
 20 22  1  0     0  0
 21 22  2  0     0  0
 25 26  1  0     0  0
 26 27  1  0     0  0
 27 28  1  0     0  0
M  END
> <standard_type>
pIC50

> <# Confs.>
25

> <canonical_smiles>
ClC(N=C1CCCC)=C(CC2=NN=NN2)N1CC3=CC=CC=C3C4=NN=NN4

> <standard_relation>
=

> <Publication_ID>
nan

> <predicted_activity_value>
5.0

> <actual_activity_value>
5.920818753952375

> <Compound>
15

> <standard_units>
nM

> hash
13619753703845672401

$$$$
15_
XXILIB    08252103513D 0   0.00000     0.00000

 28 31  0     1  0            999 V2000
   -3.5590    0.0029   -1.4785 Cl  0  0  0  0  0  1           0  0  0
    4.7387    0.2323   -3.6049 N   0  0  0  0  0  3           0  0  0
   -0.6977    3.2426   -4.0704 N   0  0  0  0  0  3           0  0  0
    4.4799   -0.8014   -2.8160 N   0  0  0  0  0  3           0  0  0
    0.5586    3.2834   -3.6471 N   0  0  0  0  0  3           0  0  0
    4.2400    1.2952   -2.9601 N   0  0  0  0  0  3           0  0  0
   -1.1483    2.0350   -3.7066 N   0  0  0  0  0  3           0  0  0
    3.8212   -0.4017   -1.6762 N   0  0  0  0  0  3           0  0  0
    0.9074    2.1112   -3.0171 N   0  0  0  0  0  3           0  0  0
    0.0000    0.0000    0.0000 N   0  0  0  0  0  3           0  0  0
   -2.0837   -0.0002    0.7714 N   0  0  0  0  0  3           0  0  0
   -2.0990   -0.0049   -0.5984 C   0  0  0  0  0  4           0  0  0
    3.6781    0.9054   -1.7749 C   0  0  0  0  0  4           0  0  0
   -0.1617    1.3424   -3.0616 C   0  0  0  0  0  4           0  0  0
   -0.8123    0.0000    1.1177 C   0  0  0  0  0  4           0  0  0
   -0.8164   -0.0135   -1.1139 C   0  0  0  0  0  4           0  0  0
    3.0505    1.8059   -0.8388 C   0  0  0  0  0  4           0  0  0
    1.9918    1.3966   -0.0000 C   0  0  0  0  0  4           0  0  0
    3.5280    3.1245   -0.7637 C   0  0  0  0  0  4           0  0  0
    1.4403    2.3305    0.8957 C   0  0  0  0  0  4           0  0  0
    2.9622    4.0362    0.1262 C   0  0  0  0  0  4           0  0  0
    1.9184    3.6399    0.9552 C   0  0  0  0  0  4           0  0  0
    1.4499    0.0000   -0.0000 C   0  0  0  0  0  4           0  0  0
   -0.3358   -0.0232   -2.5209 C   0  0  0  0  0  4           0  0  0
   -0.3185    0.0095    2.5201 C   0  0  0  0  0  4           0  0  0
   -1.0596   -0.9886    3.4050 C   0  0  0  0  0  4           0  0  0
   -0.9464   -2.4436    2.9479 C   0  0  0  0  0  4           0  0  0
    0.4999   -2.9098    2.9213 C   0  0  0  0  0  4           0  0  0
  1 12  1  0     0  0
  2  4  2  0     0  0
  2  6  1  0     0  0
  3  5  2  0     0  0
  3  7  1  0     0  0
  4  8  1  0     0  0
  5  9  1  0     0  0
  6 13  1  0     0  0
  7 14  1  0     0  0
  8 13  2  0     0  0
  9 14  2  0     0  0
 10 15  1  0     0  0
 10 16  1  0     0  0
 10 23  1  0     0  0
 11 12  1  0     0  0
 11 15  2  0     0  0
 12 16  2  0     0  0
 13 17  1  0     0  0
 14 24  1  0     0  0
 15 25  1  0     0  0
 16 24  1  0     0  0
 17 18  1  0     0  0
 17 19  2  0     0  0
 18 20  2  0     0  0
 18 23  1  0     0  0
 19 21  1  0     0  0
 20 22  1  0     0  0
 21 22  2  0     0  0
 25 26  1  0     0  0
 26 27  1  0     0  0
 27 28  1  0     0  0
M  END
> <standard_type>
pIC50

> <# Confs.>
25

> <canonical_smiles>
ClC(N=C1CCCC)=C(CC2=NN=NN2)N1CC3=CC=CC=C3C4=NN=NN4

> <standard_relation>
=

> <Publication_ID>
nan

> <predicted_activity_value>
5.0

> <actual_activity_value>
5.920818753952375

> <Compound>
15

> <standard_units>
nM

> hash
13619753703845672401

$$$$
15_
XXILIB    08252103513D 0   0.00000     0.00000

 28 31  0     1  0            999 V2000
   -3.5590    0.0029   -1.4785 Cl  0  0  0  0  0  1           0  0  0
    4.7907   -0.2024   -3.5550 N   0  0  0  0  0  3           0  0  0
   -0.6595   -3.3107   -4.0326 N   0  0  0  0  0  3           0  0  0
    4.5469    0.8175   -2.7438 N   0  0  0  0  0  3           0  0  0
    0.6012   -3.3269   -3.6209 N   0  0  0  0  0  3           0  0  0
    4.2668   -1.2700   -2.9386 N   0  0  0  0  0  3           0  0  0
   -1.1281   -2.1093   -3.6711 N   0  0  0  0  0  3           0  0  0
    3.8723    0.4045   -1.6180 N   0  0  0  0  0  3           0  0  0
    0.9354   -2.1446   -3.0019 N   0  0  0  0  0  3           0  0  0
    0.0000    0.0000    0.0000 N   0  0  0  0  0  3           0  0  0
   -2.0837   -0.0002    0.7714 N   0  0  0  0  0  3           0  0  0
   -2.0990   -0.0049   -0.5984 C   0  0  0  0  0  4           0  0  0
    3.7015   -0.8963   -1.7497 C   0  0  0  0  0  4           0  0  0
   -0.1484   -1.3962   -3.0382 C   0  0  0  0  0  4           0  0  0
   -0.8123    0.0000    1.1177 C   0  0  0  0  0  4           0  0  0
   -0.8164   -0.0135   -1.1139 C   0  0  0  0  0  4           0  0  0
    3.0505   -1.8059   -0.8388 C   0  0  0  0  0  4           0  0  0
    1.9918   -1.3966    0.0000 C   0  0  0  0  0  4           0  0  0
    3.4877   -3.1401   -0.8070 C   0  0  0  0  0  4           0  0  0
    1.3996   -2.3463    0.8520 C   0  0  0  0  0  4           0  0  0
    2.8915   -4.0636    0.0504 C   0  0  0  0  0  4           0  0  0
    1.8484   -3.6671    0.8801 C   0  0  0  0  0  4           0  0  0
    1.4499   -0.0000   -0.0000 C   0  0  0  0  0  4           0  0  0
   -0.3358   -0.0232   -2.5209 C   0  0  0  0  0  4           0  0  0
   -0.3185    0.0095    2.5201 C   0  0  0  0  0  4           0  0  0
   -1.0721    1.0062    3.3959 C   0  0  0  0  0  4           0  0  0
   -0.9771    2.4583    2.9255 C   0  0  0  0  0  4           0  0  0
    0.4633    2.9423    2.8946 C   0  0  0  0  0  4           0  0  0
  1 12  1  0     0  0
  2  4  2  0     0  0
  2  6  1  0     0  0
  3  5  2  0     0  0
  3  7  1  0     0  0
  4  8  1  0     0  0
  5  9  1  0     0  0
  6 13  1  0     0  0
  7 14  1  0     0  0
  8 13  2  0     0  0
  9 14  2  0     0  0
 10 15  1  0     0  0
 10 16  1  0     0  0
 10 23  1  0     0  0
 11 12  1  0     0  0
 11 15  2  0     0  0
 12 16  2  0     0  0
 13 17  1  0     0  0
 14 24  1  0     0  0
 15 25  1  0     0  0
 16 24  1  0     0  0
 17 18  1  0     0  0
 17 19  2  0     0  0
 18 20  2  0     0  0
 18 23  1  0     0  0
 19 21  1  0     0  0
 20 22  1  0     0  0
 21 22  2  0     0  0
 25 26  1  0     0  0
 26 27  1  0     0  0
 27 28  1  0     0  0
M  END
> <standard_type>
pIC50

> <# Confs.>
25

> <canonical_smiles>
ClC(N=C1CCCC)=C(CC2=NN=NN2)N1CC3=CC=CC=C3C4=NN=NN4

> <standard_relation>
=

> <Publication_ID>
nan

> <predicted_activity_value>
5.0

> <actual_activity_value>
5.920818753952375

> <Compound>
15

> <standard_units>
nM

> hash
13619753703845672401

$$$$
16_
XXILIB    08252103513D 0   0.00000     0.00000

 38 40  0     1  0            999 V2000
   -6.3234    1.4206   -4.4485 Cl  0  0  0  0  0  1           0  0  0
    6.0732   -1.3866    1.5849 S   0  0  1  0  0  6           0  0  0
    8.6205   -1.4039    1.0809 F   0  0  0  0  0  1           0  0  0
    7.7556   -3.3546    1.5339 F   0  0  0  0  0  1           0  0  0
    7.3837   -2.4226   -0.4029 F   0  0  0  0  0  1           0  0  0
    6.2944   -1.1619    3.0001 O   0  0  0  0  0  2           0  0  0
    4.9303   -2.1524    1.1241 O   0  0  0  0  0  2           0  0  0
    1.9427    0.0000   -2.2467 O   0  0  0  0  0  2           0  0  0
   -6.1536    2.8736   -0.7513 O   0  0  0  0  0  2           0  0  0
   -4.8849   -0.0169   -1.1661 N   0  0  0  0  0  3           0  0  0
   -5.7202   -0.7920   -3.0682 N   0  0  0  0  0  3           0  0  0
    6.1057    0.1108    0.7291 N   0  0  0  0  0  3           0  0  0
    3.6054   -0.0007   -0.6241 N   0  0  0  0  0  3           0  0  0
    1.4083    0.0000    0.0000 N   0  0  0  0  0  3           0  0  0
   -5.7211    0.5796   -3.0917 C   0  0  0  0  0  4           0  0  0
   -5.2108   -1.1365   -1.9044 C   0  0  0  0  0  4           0  0  0
   -5.1951    1.1026   -1.9213 C   0  0  0  0  0  4           0  0  0
    6.0337   -0.0022   -0.7037 C   0  0  0  0  0  4           0  0  0
    4.7981   -0.0016   -1.3730 C   0  0  0  0  0  4           0  0  0
    0.0000    0.0000    0.0000 C   0  0  0  0  0  4           0  0  0
   -2.8126   -0.0124    0.1073 C   0  0  0  0  0  4           0  0  0
    7.2300   -0.0147   -1.4306 C   0  0  0  0  0  4           0  0  0
    4.7817   -0.0261   -2.7742 C   0  0  0  0  0  4           0  0  0
   -0.6593    0.0000    1.2330 C   0  0  0  0  0  4           0  0  0
   -0.7494    0.0011   -1.1808 C   0  0  0  0  0  4           0  0  0
   -2.0550   -0.0051    1.2855 C   0  0  0  0  0  4           0  0  0
   -2.1462   -0.0007   -1.1249 C   0  0  0  0  0  4           0  0  0
    7.2001   -0.0419   -2.8238 C   0  0  0  0  0  4           0  0  0
    5.9788   -0.0465   -3.4935 C   0  0  0  0  0  4           0  0  0
    7.5137   -2.1698    0.9223 C   0  0  1  0  0  4           0  0  0
    2.2843    0.0000   -1.0635 C   0  0  0  0  0  4           0  0  0
   -4.9653    2.4785   -1.4253 C   0  0  0  0  0  4           0  0  0
   -6.0466    4.1914   -0.2284 C   0  0  0  0  0  4           0  0  0
   -4.3097   -0.0079    0.1647 C   0  0  0  0  0  4           0  0  0
   -5.0219   -2.5392   -1.4490 C   0  0  0  0  0  4           0  0  0
   -6.2431   -3.0791   -0.7110 C   0  0  0  0  0  4           0  0  0
   -6.0595   -4.5192   -0.2390 C   0  0  0  0  0  4           0  0  0
   -7.2765   -5.0594    0.4972 C   0  0  0  0  0  4           0  0  0
  1 15  1  0     0  0
  2  6  2  0     0  0
  2  7  2  0     0  0
  2 12  1  0     0  0
  2 30  1  0     0  0
  3 30  1  0     0  0
  4 30  1  0     0  0
  5 30  1  0     0  0
  8 31  2  0     0  0
  9 32  1  0     0  0
  9 33  1  0     0  0
 10 16  1  0     0  0
 10 17  1  0     0  0
 10 34  1  0     0  0
 11 15  1  0     0  0
 11 16  2  0     0  0
 12 18  1  0     0  0
 13 19  1  0     0  0
 13 31  1  0     0  0
 14 20  1  0     0  0
 14 31  1  0     0  0
 15 17  2  0     0  0
 16 35  1  0     0  0
 17 32  1  0     0  0
 18 19  1  0     0  0
 18 22  2  0     0  0
 19 23  2  0     0  0
 20 24  2  0     0  0
 20 25  1  0     0  0
 21 26  2  0     0  0
 21 27  1  0     0  0
 21 34  1  0     0  0
 22 28  1  0     0  0
 23 29  1  0     0  0
 24 26  1  0     0  0
 25 27  2  0     0  0
 28 29  2  0     0  0
 35 36  1  0     0  0
 36 37  1  0     0  0
 37 38  1  0     0  0
M  END
> <standard_type>
pIC50

> <# Confs.>
25

> <canonical_smiles>
CCCCC1=NC(Cl)=C(COC)N1CC2=CC=C(NC(NC3=CC=CC=C3NS(C(F)(F)F)(=O)=O)=O)C=C2

> <standard_relation>
=

> <Publication_ID>
nan

> <predicted_activity_value>
5.0

> <actual_activity_value>
5.619788758288394

> <Compound>
16

> <standard_units>
nM

> hash
3731556818081296511

$$$$
16_
XXILIB    08252103513D 0   0.00000     0.00000

 38 40  0     1  0            999 V2000
   -6.2826   -1.4987   -4.4464 Cl  0  0  0  0  0  1           0  0  0
    6.0732   -1.3866    1.5849 S   0  0  1  0  0  6           0  0  0
    8.6205   -1.4039    1.0809 F   0  0  0  0  0  1           0  0  0
    7.7556   -3.3546    1.5339 F   0  0  0  0  0  1           0  0  0
    7.3837   -2.4226   -0.4029 F   0  0  0  0  0  1           0  0  0
    6.2944   -1.1619    3.0001 O   0  0  0  0  0  2           0  0  0
    4.9303   -2.1524    1.1241 O   0  0  0  0  0  2           0  0  0
    1.9427    0.0000   -2.2467 O   0  0  0  0  0  2           0  0  0
   -6.1969   -2.8778   -0.6861 O   0  0  0  0  0  2           0  0  0
   -4.8849   -0.0169   -1.1661 N   0  0  0  0  0  3           0  0  0
   -5.7016    0.7324   -3.0866 N   0  0  0  0  0  3           0  0  0
    6.1057    0.1108    0.7291 N   0  0  0  0  0  3           0  0  0
    3.6054   -0.0007   -0.6241 N   0  0  0  0  0  3           0  0  0
    1.4083    0.0000    0.0000 N   0  0  0  0  0  3           0  0  0
   -5.7113   -0.6393   -3.0877 C   0  0  0  0  0  4           0  0  0
   -5.2048    1.0926   -1.9221 C   0  0  0  0  0  4           0  0  0
   -5.2168   -1.1464   -1.8967 C   0  0  0  0  0  4           0  0  0
    6.0337   -0.0022   -0.7037 C   0  0  0  0  0  4           0  0  0
    4.7981   -0.0016   -1.3730 C   0  0  0  0  0  4           0  0  0
    0.0000    0.0000    0.0000 C   0  0  0  0  0  4           0  0  0
   -2.8126   -0.0124    0.1073 C   0  0  0  0  0  4           0  0  0
    7.2300   -0.0147   -1.4306 C   0  0  0  0  0  4           0  0  0
    4.7817   -0.0261   -2.7742 C   0  0  0  0  0  4           0  0  0
   -0.6593    0.0000    1.2330 C   0  0  0  0  0  4           0  0  0
   -0.7494    0.0011   -1.1808 C   0  0  0  0  0  4           0  0  0
   -2.0550   -0.0051    1.2855 C   0  0  0  0  0  4           0  0  0
   -2.1462   -0.0007   -1.1249 C   0  0  0  0  0  4           0  0  0
    7.2001   -0.0419   -2.8238 C   0  0  0  0  0  4           0  0  0
    5.9788   -0.0465   -3.4935 C   0  0  0  0  0  4           0  0  0
    7.5137   -2.1698    0.9223 C   0  0  1  0  0  4           0  0  0
    2.2843    0.0000   -1.0635 C   0  0  0  0  0  4           0  0  0
   -5.0062   -2.5154   -1.3738 C   0  0  0  0  0  4           0  0  0
   -6.1080   -4.1862   -0.1369 C   0  0  0  0  0  4           0  0  0
   -4.3097   -0.0079    0.1647 C   0  0  0  0  0  4           0  0  0
   -5.0094    2.5014   -1.4884 C   0  0  0  0  0  4           0  0  0
   -6.2286    3.0586   -0.7600 C   0  0  0  0  0  4           0  0  0
   -6.0383    4.5050   -0.3104 C   0  0  0  0  0  4           0  0  0
   -7.2532    5.0625    0.4163 C   0  0  0  0  0  4           0  0  0
  1 15  1  0     0  0
  2  6  2  0     0  0
  2  7  2  0     0  0
  2 12  1  0     0  0
  2 30  1  0     0  0
  3 30  1  0     0  0
  4 30  1  0     0  0
  5 30  1  0     0  0
  8 31  2  0     0  0
  9 32  1  0     0  0
  9 33  1  0     0  0
 10 16  1  0     0  0
 10 17  1  0     0  0
 10 34  1  0     0  0
 11 15  1  0     0  0
 11 16  2  0     0  0
 12 18  1  0     0  0
 13 19  1  0     0  0
 13 31  1  0     0  0
 14 20  1  0     0  0
 14 31  1  0     0  0
 15 17  2  0     0  0
 16 35  1  0     0  0
 17 32  1  0     0  0
 18 19  1  0     0  0
 18 22  2  0     0  0
 19 23  2  0     0  0
 20 24  2  0     0  0
 20 25  1  0     0  0
 21 26  2  0     0  0
 21 27  1  0     0  0
 21 34  1  0     0  0
 22 28  1  0     0  0
 23 29  1  0     0  0
 24 26  1  0     0  0
 25 27  2  0     0  0
 28 29  2  0     0  0
 35 36  1  0     0  0
 36 37  1  0     0  0
 37 38  1  0     0  0
M  END
> <standard_type>
pIC50

> <# Confs.>
25

> <canonical_smiles>
CCCCC1=NC(Cl)=C(COC)N1CC2=CC=C(NC(NC3=CC=CC=C3NS(C(F)(F)F)(=O)=O)=O)C=C2

> <standard_relation>
=

> <Publication_ID>
nan

> <predicted_activity_value>
5.0

> <actual_activity_value>
5.619788758288394

> <Compound>
16

> <standard_units>
nM

> hash
3731556818081296511

$$$$
16_
XXILIB    08252103513D 0   0.00000     0.00000

 38 40  0     1  0            999 V2000
   -6.3234    1.4206   -4.4485 Cl  0  0  0  0  0  1           0  0  0
    6.0732   -1.3866    1.5849 S   0  0  1  0  0  6           0  0  0
    8.6205   -1.4039    1.0809 F   0  0  0  0  0  1           0  0  0
    7.7556   -3.3546    1.5339 F   0  0  0  0  0  1           0  0  0
    7.3837   -2.4226   -0.4029 F   0  0  0  0  0  1           0  0  0
    6.2944   -1.1619    3.0001 O   0  0  0  0  0  2           0  0  0
    4.9303   -2.1524    1.1241 O   0  0  0  0  0  2           0  0  0
    1.9427    0.0000   -2.2467 O   0  0  0  0  0  2           0  0  0
   -6.1536    2.8736   -0.7513 O   0  0  0  0  0  2           0  0  0
   -4.8849   -0.0169   -1.1661 N   0  0  0  0  0  3           0  0  0
   -5.7202   -0.7920   -3.0682 N   0  0  0  0  0  3           0  0  0
    6.1057    0.1108    0.7291 N   0  0  0  0  0  3           0  0  0
    3.6054   -0.0007   -0.6241 N   0  0  0  0  0  3           0  0  0
    1.4083    0.0000    0.0000 N   0  0  0  0  0  3           0  0  0
   -5.7211    0.5796   -3.0917 C   0  0  0  0  0  4           0  0  0
   -5.2108   -1.1365   -1.9044 C   0  0  0  0  0  4           0  0  0
   -5.1951    1.1026   -1.9213 C   0  0  0  0  0  4           0  0  0
    6.0337   -0.0022   -0.7037 C   0  0  0  0  0  4           0  0  0
    4.7981   -0.0016   -1.3730 C   0  0  0  0  0  4           0  0  0
    0.0000    0.0000    0.0000 C   0  0  0  0  0  4           0  0  0
   -2.8126   -0.0124    0.1073 C   0  0  0  0  0  4           0  0  0
    7.2300   -0.0147   -1.4306 C   0  0  0  0  0  4           0  0  0
    4.7817   -0.0261   -2.7742 C   0  0  0  0  0  4           0  0  0
   -0.6593    0.0000    1.2330 C   0  0  0  0  0  4           0  0  0
   -0.7494    0.0011   -1.1808 C   0  0  0  0  0  4           0  0  0
   -2.0550   -0.0051    1.2855 C   0  0  0  0  0  4           0  0  0
   -2.1462   -0.0007   -1.1249 C   0  0  0  0  0  4           0  0  0
    7.2001   -0.0419   -2.8238 C   0  0  0  0  0  4           0  0  0
    5.9788   -0.0465   -3.4935 C   0  0  0  0  0  4           0  0  0
    7.5137   -2.1698    0.9223 C   0  0  1  0  0  4           0  0  0
    2.2843    0.0000   -1.0635 C   0  0  0  0  0  4           0  0  0
   -4.9653    2.4785   -1.4253 C   0  0  0  0  0  4           0  0  0
   -6.0466    4.1914   -0.2284 C   0  0  0  0  0  4           0  0  0
   -4.3097   -0.0079    0.1647 C   0  0  0  0  0  4           0  0  0
   -5.0219   -2.5392   -1.4490 C   0  0  0  0  0  4           0  0  0
   -6.2431   -3.0791   -0.7110 C   0  0  0  0  0  4           0  0  0
   -7.5031   -3.0768   -1.5730 C   0  0  0  0  0  4           0  0  0
   -8.7222   -3.6149   -0.8388 C   0  0  0  0  0  4           0  0  0
  1 15  1  0     0  0
  2  6  2  0     0  0
  2  7  2  0     0  0
  2 12  1  0     0  0
  2 30  1  0     0  0
  3 30  1  0     0  0
  4 30  1  0     0  0
  5 30  1  0     0  0
  8 31  2  0     0  0
  9 32  1  0     0  0
  9 33  1  0     0  0
 10 16  1  0     0  0
 10 17  1  0     0  0
 10 34  1  0     0  0
 11 15  1  0     0  0
 11 16  2  0     0  0
 12 18  1  0     0  0
 13 19  1  0     0  0
 13 31  1  0     0  0
 14 20  1  0     0  0
 14 31  1  0     0  0
 15 17  2  0     0  0
 16 35  1  0     0  0
 17 32  1  0     0  0
 18 19  1  0     0  0
 18 22  2  0     0  0
 19 23  2  0     0  0
 20 24  2  0     0  0
 20 25  1  0     0  0
 21 26  2  0     0  0
 21 27  1  0     0  0
 21 34  1  0     0  0
 22 28  1  0     0  0
 23 29  1  0     0  0
 24 26  1  0     0  0
 25 27  2  0     0  0
 28 29  2  0     0  0
 35 36  1  0     0  0
 36 37  1  0     0  0
 37 38  1  0     0  0
M  END
> <standard_type>
pIC50

> <# Confs.>
25

> <canonical_smiles>
CCCCC1=NC(Cl)=C(COC)N1CC2=CC=C(NC(NC3=CC=CC=C3NS(C(F)(F)F)(=O)=O)=O)C=C2

> <standard_relation>
=

> <Publication_ID>
nan

> <predicted_activity_value>
5.0

> <actual_activity_value>
5.619788758288394

> <Compound>
16

> <standard_units>
nM

> hash
3731556818081296511

$$$$
16_
XXILIB    08252103513D 0   0.00000     0.00000

 38 40  0     1  0            999 V2000
   -6.2826   -1.4987   -4.4464 Cl  0  0  0  0  0  1           0  0  0
    6.0732   -1.3866    1.5849 S   0  0  1  0  0  6           0  0  0
    8.6205   -1.4039    1.0809 F   0  0  0  0  0  1           0  0  0
    7.7556   -3.3546    1.5339 F   0  0  0  0  0  1           0  0  0
    7.3837   -2.4226   -0.4029 F   0  0  0  0  0  1           0  0  0
    6.2944   -1.1619    3.0001 O   0  0  0  0  0  2           0  0  0
    4.9303   -2.1524    1.1241 O   0  0  0  0  0  2           0  0  0
    1.9427    0.0000   -2.2467 O   0  0  0  0  0  2           0  0  0
   -6.1969   -2.8778   -0.6861 O   0  0  0  0  0  2           0  0  0
   -4.8849   -0.0169   -1.1661 N   0  0  0  0  0  3           0  0  0
   -5.7016    0.7324   -3.0866 N   0  0  0  0  0  3           0  0  0
    6.1057    0.1108    0.7291 N   0  0  0  0  0  3           0  0  0
    3.6054   -0.0007   -0.6241 N   0  0  0  0  0  3           0  0  0
    1.4083    0.0000    0.0000 N   0  0  0  0  0  3           0  0  0
   -5.7113   -0.6393   -3.0877 C   0  0  0  0  0  4           0  0  0
   -5.2048    1.0926   -1.9221 C   0  0  0  0  0  4           0  0  0
   -5.2168   -1.1464   -1.8967 C   0  0  0  0  0  4           0  0  0
    6.0337   -0.0022   -0.7037 C   0  0  0  0  0  4           0  0  0
    4.7981   -0.0016   -1.3730 C   0  0  0  0  0  4           0  0  0
    0.0000    0.0000    0.0000 C   0  0  0  0  0  4           0  0  0
   -2.8126   -0.0124    0.1073 C   0  0  0  0  0  4           0  0  0
    7.2300   -0.0147   -1.4306 C   0  0  0  0  0  4           0  0  0
    4.7817   -0.0261   -2.7742 C   0  0  0  0  0  4           0  0  0
   -0.6593    0.0000    1.2330 C   0  0  0  0  0  4           0  0  0
   -0.7494    0.0011   -1.1808 C   0  0  0  0  0  4           0  0  0
   -2.0550   -0.0051    1.2855 C   0  0  0  0  0  4           0  0  0
   -2.1462   -0.0007   -1.1249 C   0  0  0  0  0  4           0  0  0
    7.2001   -0.0419   -2.8238 C   0  0  0  0  0  4           0  0  0
    5.9788   -0.0465   -3.4935 C   0  0  0  0  0  4           0  0  0
    7.5137   -2.1698    0.9223 C   0  0  1  0  0  4           0  0  0
    2.2843    0.0000   -1.0635 C   0  0  0  0  0  4           0  0  0
   -5.0062   -2.5154   -1.3738 C   0  0  0  0  0  4           0  0  0
   -6.1080   -4.1862   -0.1369 C   0  0  0  0  0  4           0  0  0
   -4.3097   -0.0079    0.1647 C   0  0  0  0  0  4           0  0  0
   -5.0094    2.5014   -1.4884 C   0  0  0  0  0  4           0  0  0
   -5.4608    3.5023   -2.5476 C   0  0  0  0  0  4           0  0  0
   -5.2645    4.9523   -2.1121 C   0  0  0  0  0  4           0  0  0
   -5.7141    5.9521   -3.1671 C   0  0  0  0  0  4           0  0  0
  1 15  1  0     0  0
  2  6  2  0     0  0
  2  7  2  0     0  0
  2 12  1  0     0  0
  2 30  1  0     0  0
  3 30  1  0     0  0
  4 30  1  0     0  0
  5 30  1  0     0  0
  8 31  2  0     0  0
  9 32  1  0     0  0
  9 33  1  0     0  0
 10 16  1  0     0  0
 10 17  1  0     0  0
 10 34  1  0     0  0
 11 15  1  0     0  0
 11 16  2  0     0  0
 12 18  1  0     0  0
 13 19  1  0     0  0
 13 31  1  0     0  0
 14 20  1  0     0  0
 14 31  1  0     0  0
 15 17  2  0     0  0
 16 35  1  0     0  0
 17 32  1  0     0  0
 18 19  1  0     0  0
 18 22  2  0     0  0
 19 23  2  0     0  0
 20 24  2  0     0  0
 20 25  1  0     0  0
 21 26  2  0     0  0
 21 27  1  0     0  0
 21 34  1  0     0  0
 22 28  1  0     0  0
 23 29  1  0     0  0
 24 26  1  0     0  0
 25 27  2  0     0  0
 28 29  2  0     0  0
 35 36  1  0     0  0
 36 37  1  0     0  0
 37 38  1  0     0  0
M  END
> <standard_type>
pIC50

> <# Confs.>
25

> <canonical_smiles>
CCCCC1=NC(Cl)=C(COC)N1CC2=CC=C(NC(NC3=CC=CC=C3NS(C(F)(F)F)(=O)=O)=O)C=C2

> <standard_relation>
=

> <Publication_ID>
nan

> <predicted_activity_value>
5.0

> <actual_activity_value>
5.619788758288394

> <Compound>
16

> <standard_units>
nM

> hash
3731556818081296511

$$$$
16_
XXILIB    08252103513D 0   0.00000     0.00000

 38 40  0     1  0            999 V2000
   -6.0724   -4.3228    2.5421 Cl  0  0  0  0  0  1           0  0  0
    6.0732   -1.3866    1.5849 S   0  0  1  0  0  6           0  0  0
    8.5030   -0.7415    2.2353 F   0  0  0  0  0  1           0  0  0
    8.0364   -2.8662    2.3991 F   0  0  0  0  0  1           0  0  0
    8.3282   -1.9644    0.4345 F   0  0  0  0  0  1           0  0  0
    5.5935   -1.1824    2.9378 O   0  0  0  0  0  2           0  0  0
    5.4723   -2.3909    0.7274 O   0  0  0  0  0  2           0  0  0
    1.9427    0.0000   -2.2467 O   0  0  0  0  0  2           0  0  0
   -6.1838   -2.7334   -1.1007 O   0  0  0  0  0  2           0  0  0
   -4.7989   -0.9548    1.1476 N   0  0  0  0  0  3           0  0  0
   -5.4868   -1.7695    3.0918 N   0  0  0  0  0  3           0  0  0
    6.1057    0.1108    0.7291 N   0  0  0  0  0  3           0  0  0
    3.6054   -0.0007   -0.6241 N   0  0  0  0  0  3           0  0  0
    1.4083    0.0000    0.0000 N   0  0  0  0  0  3           0  0  0
   -5.5304   -2.7559    2.1396 C   0  0  0  0  0  4           0  0  0
   -5.0412   -0.6921    2.4807 C   0  0  0  0  0  4           0  0  0
   -5.0966   -2.2869    0.9099 C   0  0  0  0  0  4           0  0  0
    6.0337   -0.0022   -0.7037 C   0  0  0  0  0  4           0  0  0
    4.7981   -0.0016   -1.3730 C   0  0  0  0  0  4           0  0  0
    0.0000    0.0000    0.0000 C   0  0  0  0  0  4           0  0  0
   -2.8126   -0.0124    0.1073 C   0  0  0  0  0  4           0  0  0
    7.2300   -0.0147   -1.4306 C   0  0  0  0  0  4           0  0  0
    4.7817   -0.0261   -2.7742 C   0  0  0  0  0  4           0  0  0
   -0.6593    0.0000    1.2330 C   0  0  0  0  0  4           0  0  0
   -0.7494    0.0011   -1.1808 C   0  0  0  0  0  4           0  0  0
   -2.0550   -0.0051    1.2855 C   0  0  0  0  0  4           0  0  0
   -2.1462   -0.0007   -1.1249 C   0  0  0  0  0  4           0  0  0
    7.2001   -0.0419   -2.8238 C   0  0  0  0  0  4           0  0  0
    5.9788   -0.0465   -3.4935 C   0  0  0  0  0  4           0  0  0
    7.8018   -1.7515    1.6651 C   0  0  1  0  0  4           0  0  0
    2.2843    0.0000   -1.0635 C   0  0  0  0  0  4           0  0  0
   -4.9431   -2.9042   -0.4270 C   0  0  0  0  0  4           0  0  0
   -6.1525   -3.2933   -2.4073 C   0  0  0  0  0  4           0  0  0
   -4.3097   -0.0079    0.1647 C   0  0  0  0  0  4           0  0  0
   -4.8364    0.6258    3.1380 C   0  0  0  0  0  4           0  0  0
   -6.0042    1.0117    4.0406 C   0  0  0  0  0  4           0  0  0
   -5.8039    2.3637    4.7205 C   0  0  0  0  0  4           0  0  0
   -6.9676    2.7503    5.6212 C   0  0  0  0  0  4           0  0  0
  1 15  1  0     0  0
  2  6  2  0     0  0
  2  7  2  0     0  0
  2 12  1  0     0  0
  2 30  1  0     0  0
  3 30  1  0     0  0
  4 30  1  0     0  0
  5 30  1  0     0  0
  8 31  2  0     0  0
  9 32  1  0     0  0
  9 33  1  0     0  0
 10 16  1  0     0  0
 10 17  1  0     0  0
 10 34  1  0     0  0
 11 15  1  0     0  0
 11 16  2  0     0  0
 12 18  1  0     0  0
 13 19  1  0     0  0
 13 31  1  0     0  0
 14 20  1  0     0  0
 14 31  1  0     0  0
 15 17  2  0     0  0
 16 35  1  0     0  0
 17 32  1  0     0  0
 18 19  1  0     0  0
 18 22  2  0     0  0
 19 23  2  0     0  0
 20 24  2  0     0  0
 20 25  1  0     0  0
 21 26  2  0     0  0
 21 27  1  0     0  0
 21 34  1  0     0  0
 22 28  1  0     0  0
 23 29  1  0     0  0
 24 26  1  0     0  0
 25 27  2  0     0  0
 28 29  2  0     0  0
 35 36  1  0     0  0
 36 37  1  0     0  0
 37 38  1  0     0  0
M  END
> <standard_type>
pIC50

> <# Confs.>
25

> <canonical_smiles>
CCCCC1=NC(Cl)=C(COC)N1CC2=CC=C(NC(NC3=CC=CC=C3NS(C(F)(F)F)(=O)=O)=O)C=C2

> <standard_relation>
=

> <Publication_ID>
nan

> <predicted_activity_value>
5.0

> <actual_activity_value>
5.619788758288394

> <Compound>
16

> <standard_units>
nM

> hash
3731556818081296511

$$$$
16_
XXILIB    08252103513D 0   0.00000     0.00000

 38 40  0     1  0            999 V2000
   -6.2826   -1.4987   -4.4464 Cl  0  0  0  0  0  1           0  0  0
    6.0732   -1.3866    1.5849 S   0  0  1  0  0  6           0  0  0
    8.6205   -1.4039    1.0809 F   0  0  0  0  0  1           0  0  0
    7.7556   -3.3546    1.5339 F   0  0  0  0  0  1           0  0  0
    7.3837   -2.4226   -0.4029 F   0  0  0  0  0  1           0  0  0
    6.2944   -1.1619    3.0001 O   0  0  0  0  0  2           0  0  0
    4.9303   -2.1524    1.1241 O   0  0  0  0  0  2           0  0  0
    1.9427    0.0000   -2.2467 O   0  0  0  0  0  2           0  0  0
   -6.1969   -2.8778   -0.6861 O   0  0  0  0  0  2           0  0  0
   -4.8849   -0.0169   -1.1661 N   0  0  0  0  0  3           0  0  0
   -5.7016    0.7324   -3.0866 N   0  0  0  0  0  3           0  0  0
    6.1057    0.1108    0.7291 N   0  0  0  0  0  3           0  0  0
    3.6054   -0.0007   -0.6241 N   0  0  0  0  0  3           0  0  0
    1.4083    0.0000    0.0000 N   0  0  0  0  0  3           0  0  0
   -5.7113   -0.6393   -3.0877 C   0  0  0  0  0  4           0  0  0
   -5.2048    1.0926   -1.9221 C   0  0  0  0  0  4           0  0  0
   -5.2168   -1.1464   -1.8967 C   0  0  0  0  0  4           0  0  0
    6.0337   -0.0022   -0.7037 C   0  0  0  0  0  4           0  0  0
    4.7981   -0.0016   -1.3730 C   0  0  0  0  0  4           0  0  0
    0.0000    0.0000    0.0000 C   0  0  0  0  0  4           0  0  0
   -2.8126   -0.0124    0.1073 C   0  0  0  0  0  4           0  0  0
    7.2300   -0.0147   -1.4306 C   0  0  0  0  0  4           0  0  0
    4.7817   -0.0261   -2.7742 C   0  0  0  0  0  4           0  0  0
   -0.6593    0.0000    1.2330 C   0  0  0  0  0  4           0  0  0
   -0.7494    0.0011   -1.1808 C   0  0  0  0  0  4           0  0  0
   -2.0550   -0.0051    1.2855 C   0  0  0  0  0  4           0  0  0
   -2.1462   -0.0007   -1.1249 C   0  0  0  0  0  4           0  0  0
    7.2001   -0.0419   -2.8238 C   0  0  0  0  0  4           0  0  0
    5.9788   -0.0465   -3.4935 C   0  0  0  0  0  4           0  0  0
    7.5137   -2.1698    0.9223 C   0  0  1  0  0  4           0  0  0
    2.2843    0.0000   -1.0635 C   0  0  0  0  0  4           0  0  0
   -5.0062   -2.5154   -1.3738 C   0  0  0  0  0  4           0  0  0
   -6.1080   -4.1862   -0.1369 C   0  0  0  0  0  4           0  0  0
   -4.3097   -0.0079    0.1647 C   0  0  0  0  0  4           0  0  0
   -5.0094    2.5014   -1.4884 C   0  0  0  0  0  4           0  0  0
   -6.2286    3.0586   -0.7600 C   0  0  0  0  0  4           0  0  0
   -7.4879    3.0490   -1.6229 C   0  0  0  0  0  4           0  0  0
   -8.7050    3.6043   -0.8982 C   0  0  0  0  0  4           0  0  0
  1 15  1  0     0  0
  2  6  2  0     0  0
  2  7  2  0     0  0
  2 12  1  0     0  0
  2 30  1  0     0  0
  3 30  1  0     0  0
  4 30  1  0     0  0
  5 30  1  0     0  0
  8 31  2  0     0  0
  9 32  1  0     0  0
  9 33  1  0     0  0
 10 16  1  0     0  0
 10 17  1  0     0  0
 10 34  1  0     0  0
 11 15  1  0     0  0
 11 16  2  0     0  0
 12 18  1  0     0  0
 13 19  1  0     0  0
 13 31  1  0     0  0
 14 20  1  0     0  0
 14 31  1  0     0  0
 15 17  2  0     0  0
 16 35  1  0     0  0
 17 32  1  0     0  0
 18 19  1  0     0  0
 18 22  2  0     0  0
 19 23  2  0     0  0
 20 24  2  0     0  0
 20 25  1  0     0  0
 21 26  2  0     0  0
 21 27  1  0     0  0
 21 34  1  0     0  0
 22 28  1  0     0  0
 23 29  1  0     0  0
 24 26  1  0     0  0
 25 27  2  0     0  0
 28 29  2  0     0  0
 35 36  1  0     0  0
 36 37  1  0     0  0
 37 38  1  0     0  0
M  END
> <standard_type>
pIC50

> <# Confs.>
25

> <canonical_smiles>
CCCCC1=NC(Cl)=C(COC)N1CC2=CC=C(NC(NC3=CC=CC=C3NS(C(F)(F)F)(=O)=O)=O)C=C2

> <standard_relation>
=

> <Publication_ID>
nan

> <predicted_activity_value>
5.0

> <actual_activity_value>
5.619788758288394

> <Compound>
16

> <standard_units>
nM

> hash
3731556818081296511

$$$$
16_
XXILIB    08252103513D 0   0.00000     0.00000

 38 40  0     1  0            999 V2000
   -6.0724   -4.3228    2.5421 Cl  0  0  0  0  0  1           0  0  0
    6.0732   -1.3866    1.5849 S   0  0  1  0  0  6           0  0  0
    8.5030   -0.7415    2.2353 F   0  0  0  0  0  1           0  0  0
    8.0364   -2.8662    2.3991 F   0  0  0  0  0  1           0  0  0
    8.3282   -1.9644    0.4345 F   0  0  0  0  0  1           0  0  0
    5.5935   -1.1824    2.9378 O   0  0  0  0  0  2           0  0  0
    5.4723   -2.3909    0.7274 O   0  0  0  0  0  2           0  0  0
    1.9427    0.0000   -2.2467 O   0  0  0  0  0  2           0  0  0
   -6.1838   -2.7334   -1.1007 O   0  0  0  0  0  2           0  0  0
   -4.7989   -0.9548    1.1476 N   0  0  0  0  0  3           0  0  0
   -5.4868   -1.7695    3.0918 N   0  0  0  0  0  3           0  0  0
    6.1057    0.1108    0.7291 N   0  0  0  0  0  3           0  0  0
    3.6054   -0.0007   -0.6241 N   0  0  0  0  0  3           0  0  0
    1.4083    0.0000    0.0000 N   0  0  0  0  0  3           0  0  0
   -5.5304   -2.7559    2.1396 C   0  0  0  0  0  4           0  0  0
   -5.0412   -0.6921    2.4807 C   0  0  0  0  0  4           0  0  0
   -5.0966   -2.2869    0.9099 C   0  0  0  0  0  4           0  0  0
    6.0337   -0.0022   -0.7037 C   0  0  0  0  0  4           0  0  0
    4.7981   -0.0016   -1.3730 C   0  0  0  0  0  4           0  0  0
    0.0000    0.0000    0.0000 C   0  0  0  0  0  4           0  0  0
   -2.8126   -0.0124    0.1073 C   0  0  0  0  0  4           0  0  0
    7.2300   -0.0147   -1.4306 C   0  0  0  0  0  4           0  0  0
    4.7817   -0.0261   -2.7742 C   0  0  0  0  0  4           0  0  0
   -0.6593    0.0000    1.2330 C   0  0  0  0  0  4           0  0  0
   -0.7494    0.0011   -1.1808 C   0  0  0  0  0  4           0  0  0
   -2.0550   -0.0051    1.2855 C   0  0  0  0  0  4           0  0  0
   -2.1462   -0.0007   -1.1249 C   0  0  0  0  0  4           0  0  0
    7.2001   -0.0419   -2.8238 C   0  0  0  0  0  4           0  0  0
    5.9788   -0.0465   -3.4935 C   0  0  0  0  0  4           0  0  0
    7.8018   -1.7515    1.6651 C   0  0  1  0  0  4           0  0  0
    2.2843    0.0000   -1.0635 C   0  0  0  0  0  4           0  0  0
   -4.9431   -2.9042   -0.4270 C   0  0  0  0  0  4           0  0  0
   -6.1525   -3.2933   -2.4073 C   0  0  0  0  0  4           0  0  0
   -4.3097   -0.0079    0.1647 C   0  0  0  0  0  4           0  0  0
   -4.8364    0.6258    3.1380 C   0  0  0  0  0  4           0  0  0
   -6.0042    1.0117    4.0406 C   0  0  0  0  0  4           0  0  0
   -7.3267    1.1132    3.2848 C   0  0  0  0  0  4           0  0  0
   -8.4927    1.4980    4.1834 C   0  0  0  0  0  4           0  0  0
  1 15  1  0     0  0
  2  6  2  0     0  0
  2  7  2  0     0  0
  2 12  1  0     0  0
  2 30  1  0     0  0
  3 30  1  0     0  0
  4 30  1  0     0  0
  5 30  1  0     0  0
  8 31  2  0     0  0
  9 32  1  0     0  0
  9 33  1  0     0  0
 10 16  1  0     0  0
 10 17  1  0     0  0
 10 34  1  0     0  0
 11 15  1  0     0  0
 11 16  2  0     0  0
 12 18  1  0     0  0
 13 19  1  0     0  0
 13 31  1  0     0  0
 14 20  1  0     0  0
 14 31  1  0     0  0
 15 17  2  0     0  0
 16 35  1  0     0  0
 17 32  1  0     0  0
 18 19  1  0     0  0
 18 22  2  0     0  0
 19 23  2  0     0  0
 20 24  2  0     0  0
 20 25  1  0     0  0
 21 26  2  0     0  0
 21 27  1  0     0  0
 21 34  1  0     0  0
 22 28  1  0     0  0
 23 29  1  0     0  0
 24 26  1  0     0  0
 25 27  2  0     0  0
 28 29  2  0     0  0
 35 36  1  0     0  0
 36 37  1  0     0  0
 37 38  1  0     0  0
M  END
> <standard_type>
pIC50

> <# Confs.>
25

> <canonical_smiles>
CCCCC1=NC(Cl)=C(COC)N1CC2=CC=C(NC(NC3=CC=CC=C3NS(C(F)(F)F)(=O)=O)=O)C=C2

> <standard_relation>
=

> <Publication_ID>
nan

> <predicted_activity_value>
5.0

> <actual_activity_value>
5.619788758288394

> <Compound>
16

> <standard_units>
nM

> hash
3731556818081296511

$$$$
16_
XXILIB    08252103513D 0   0.00000     0.00000

 38 40  0     1  0            999 V2000
   -6.2826   -1.4987   -4.4464 Cl  0  0  0  0  0  1           0  0  0
    6.0732   -1.3866    1.5849 S   0  0  1  0  0  6           0  0  0
    8.5030   -0.7415    2.2353 F   0  0  0  0  0  1           0  0  0
    8.0364   -2.8662    2.3991 F   0  0  0  0  0  1           0  0  0
    8.3282   -1.9644    0.4345 F   0  0  0  0  0  1           0  0  0
    5.5935   -1.1824    2.9378 O   0  0  0  0  0  2           0  0  0
    5.4723   -2.3909    0.7274 O   0  0  0  0  0  2           0  0  0
    1.9427    0.0000   -2.2467 O   0  0  0  0  0  2           0  0  0
   -6.1969   -2.8778   -0.6861 O   0  0  0  0  0  2           0  0  0
   -4.8849   -0.0169   -1.1661 N   0  0  0  0  0  3           0  0  0
   -5.7016    0.7324   -3.0866 N   0  0  0  0  0  3           0  0  0
    6.1057    0.1108    0.7291 N   0  0  0  0  0  3           0  0  0
    3.6054   -0.0007   -0.6241 N   0  0  0  0  0  3           0  0  0
    1.4083    0.0000    0.0000 N   0  0  0  0  0  3           0  0  0
   -5.7113   -0.6393   -3.0877 C   0  0  0  0  0  4           0  0  0
   -5.2048    1.0926   -1.9221 C   0  0  0  0  0  4           0  0  0
   -5.2168   -1.1464   -1.8967 C   0  0  0  0  0  4           0  0  0
    6.0337   -0.0022   -0.7037 C   0  0  0  0  0  4           0  0  0
    4.7981   -0.0016   -1.3730 C   0  0  0  0  0  4           0  0  0
    0.0000    0.0000    0.0000 C   0  0  0  0  0  4           0  0  0
   -2.8126   -0.0124    0.1073 C   0  0  0  0  0  4           0  0  0
    7.2300   -0.0147   -1.4306 C   0  0  0  0  0  4           0  0  0
    4.7817   -0.0261   -2.7742 C   0  0  0  0  0  4           0  0  0
   -0.6593    0.0000    1.2330 C   0  0  0  0  0  4           0  0  0
   -0.7494    0.0011   -1.1808 C   0  0  0  0  0  4           0  0  0
   -2.0550   -0.0051    1.2855 C   0  0  0  0  0  4           0  0  0
   -2.1462   -0.0007   -1.1249 C   0  0  0  0  0  4           0  0  0
    7.2001   -0.0419   -2.8238 C   0  0  0  0  0  4           0  0  0
    5.9788   -0.0465   -3.4935 C   0  0  0  0  0  4           0  0  0
    7.8018   -1.7515    1.6651 C   0  0  1  0  0  4           0  0  0
    2.2843    0.0000   -1.0635 C   0  0  0  0  0  4           0  0  0
   -5.0062   -2.5154   -1.3738 C   0  0  0  0  0  4           0  0  0
   -6.1080   -4.1862   -0.1369 C   0  0  0  0  0  4           0  0  0
   -4.3097   -0.0079    0.1647 C   0  0  0  0  0  4           0  0  0
   -5.0094    2.5014   -1.4884 C   0  0  0  0  0  4           0  0  0
   -4.3903    3.3649   -2.5832 C   0  0  0  0  0  4           0  0  0
   -4.1854    4.8137   -2.1480 C   0  0  0  0  0  4           0  0  0
   -3.5680    5.6765   -3.2386 C   0  0  0  0  0  4           0  0  0
  1 15  1  0     0  0
  2  6  2  0     0  0
  2  7  2  0     0  0
  2 12  1  0     0  0
  2 30  1  0     0  0
  3 30  1  0     0  0
  4 30  1  0     0  0
  5 30  1  0     0  0
  8 31  2  0     0  0
  9 32  1  0     0  0
  9 33  1  0     0  0
 10 16  1  0     0  0
 10 17  1  0     0  0
 10 34  1  0     0  0
 11 15  1  0     0  0
 11 16  2  0     0  0
 12 18  1  0     0  0
 13 19  1  0     0  0
 13 31  1  0     0  0
 14 20  1  0     0  0
 14 31  1  0     0  0
 15 17  2  0     0  0
 16 35  1  0     0  0
 17 32  1  0     0  0
 18 19  1  0     0  0
 18 22  2  0     0  0
 19 23  2  0     0  0
 20 24  2  0     0  0
 20 25  1  0     0  0
 21 26  2  0     0  0
 21 27  1  0     0  0
 21 34  1  0     0  0
 22 28  1  0     0  0
 23 29  1  0     0  0
 24 26  1  0     0  0
 25 27  2  0     0  0
 28 29  2  0     0  0
 35 36  1  0     0  0
 36 37  1  0     0  0
 37 38  1  0     0  0
M  END
> <standard_type>
pIC50

> <# Confs.>
25

> <canonical_smiles>
CCCCC1=NC(Cl)=C(COC)N1CC2=CC=C(NC(NC3=CC=CC=C3NS(C(F)(F)F)(=O)=O)=O)C=C2

> <standard_relation>
=

> <Publication_ID>
nan

> <predicted_activity_value>
5.0

> <actual_activity_value>
5.619788758288394

> <Compound>
16

> <standard_units>
nM

> hash
3731556818081296511

$$$$
16_
XXILIB    08252103513D 0   0.00000     0.00000

 38 40  0     1  0            999 V2000
   -6.3234    1.4206   -4.4485 Cl  0  0  0  0  0  1           0  0  0
    6.0732   -1.3866    1.5849 S   0  0  1  0  0  6           0  0  0
    8.6205   -1.4039    1.0809 F   0  0  0  0  0  1           0  0  0
    7.7556   -3.3546    1.5339 F   0  0  0  0  0  1           0  0  0
    7.3837   -2.4226   -0.4029 F   0  0  0  0  0  1           0  0  0
    6.2944   -1.1619    3.0001 O   0  0  0  0  0  2           0  0  0
    4.9303   -2.1524    1.1241 O   0  0  0  0  0  2           0  0  0
    1.9427    0.0000   -2.2467 O   0  0  0  0  0  2           0  0  0
   -6.1536    2.8736   -0.7513 O   0  0  0  0  0  2           0  0  0
   -4.8849   -0.0169   -1.1661 N   0  0  0  0  0  3           0  0  0
   -5.7202   -0.7920   -3.0682 N   0  0  0  0  0  3           0  0  0
    6.1057    0.1108    0.7291 N   0  0  0  0  0  3           0  0  0
    3.6054   -0.0007   -0.6241 N   0  0  0  0  0  3           0  0  0
    1.4083    0.0000    0.0000 N   0  0  0  0  0  3           0  0  0
   -5.7211    0.5796   -3.0917 C   0  0  0  0  0  4           0  0  0
   -5.2108   -1.1365   -1.9044 C   0  0  0  0  0  4           0  0  0
   -5.1951    1.1026   -1.9213 C   0  0  0  0  0  4           0  0  0
    6.0337   -0.0022   -0.7037 C   0  0  0  0  0  4           0  0  0
    4.7981   -0.0016   -1.3730 C   0  0  0  0  0  4           0  0  0
    0.0000    0.0000    0.0000 C   0  0  0  0  0  4           0  0  0
   -2.8126   -0.0124    0.1073 C   0  0  0  0  0  4           0  0  0
    7.2300   -0.0147   -1.4306 C   0  0  0  0  0  4           0  0  0
    4.7817   -0.0261   -2.7742 C   0  0  0  0  0  4           0  0  0
   -0.6593    0.0000    1.2330 C   0  0  0  0  0  4           0  0  0
   -0.7494    0.0011   -1.1808 C   0  0  0  0  0  4           0  0  0
   -2.0550   -0.0051    1.2855 C   0  0  0  0  0  4           0  0  0
   -2.1462   -0.0007   -1.1249 C   0  0  0  0  0  4           0  0  0
    7.2001   -0.0419   -2.8238 C   0  0  0  0  0  4           0  0  0
    5.9788   -0.0465   -3.4935 C   0  0  0  0  0  4           0  0  0
    7.5137   -2.1698    0.9223 C   0  0  1  0  0  4           0  0  0
    2.2843    0.0000   -1.0635 C   0  0  0  0  0  4           0  0  0
   -4.9653    2.4785   -1.4253 C   0  0  0  0  0  4           0  0  0
   -6.0466    4.1914   -0.2284 C   0  0  0  0  0  4           0  0  0
   -4.3097   -0.0079    0.1647 C   0  0  0  0  0  4           0  0  0
   -5.0219   -2.5392   -1.4490 C   0  0  0  0  0  4           0  0  0
   -5.4790   -3.5544   -2.4920 C   0  0  0  0  0  4           0  0  0
   -5.2893   -4.9983   -2.0341 C   0  0  0  0  0  4           0  0  0
   -5.7446   -6.0123   -3.0731 C   0  0  0  0  0  4           0  0  0
  1 15  1  0     0  0
  2  6  2  0     0  0
  2  7  2  0     0  0
  2 12  1  0     0  0
  2 30  1  0     0  0
  3 30  1  0     0  0
  4 30  1  0     0  0
  5 30  1  0     0  0
  8 31  2  0     0  0
  9 32  1  0     0  0
  9 33  1  0     0  0
 10 16  1  0     0  0
 10 17  1  0     0  0
 10 34  1  0     0  0
 11 15  1  0     0  0
 11 16  2  0     0  0
 12 18  1  0     0  0
 13 19  1  0     0  0
 13 31  1  0     0  0
 14 20  1  0     0  0
 14 31  1  0     0  0
 15 17  2  0     0  0
 16 35  1  0     0  0
 17 32  1  0     0  0
 18 19  1  0     0  0
 18 22  2  0     0  0
 19 23  2  0     0  0
 20 24  2  0     0  0
 20 25  1  0     0  0
 21 26  2  0     0  0
 21 27  1  0     0  0
 21 34  1  0     0  0
 22 28  1  0     0  0
 23 29  1  0     0  0
 24 26  1  0     0  0
 25 27  2  0     0  0
 28 29  2  0     0  0
 35 36  1  0     0  0
 36 37  1  0     0  0
 37 38  1  0     0  0
M  END
> <standard_type>
pIC50

> <# Confs.>
25

> <canonical_smiles>
CCCCC1=NC(Cl)=C(COC)N1CC2=CC=C(NC(NC3=CC=CC=C3NS(C(F)(F)F)(=O)=O)=O)C=C2

> <standard_relation>
=

> <Publication_ID>
nan

> <predicted_activity_value>
5.0

> <actual_activity_value>
5.619788758288394

> <Compound>
16

> <standard_units>
nM

> hash
3731556818081296511

$$$$
16_
XXILIB    08252103513D 0   0.00000     0.00000

 38 40  0     1  0            999 V2000
   -6.3234    1.4206   -4.4485 Cl  0  0  0  0  0  1           0  0  0
    5.9109   -0.5425    2.0744 S   0  0  1  0  0  6           0  0  0
    8.4010   -1.1989    1.7409 F   0  0  0  0  0  1           0  0  0
    7.2582   -2.5368    3.0303 F   0  0  0  0  0  1           0  0  0
    6.9601   -2.5897    0.8701 F   0  0  0  0  0  1           0  0  0
    6.2216    0.2885    3.2211 O   0  0  0  0  0  2           0  0  0
    4.6438   -1.2440    1.9870 O   0  0  0  0  0  2           0  0  0
    1.9427    0.0000   -2.2467 O   0  0  0  0  0  2           0  0  0
   -6.1536    2.8736   -0.7513 O   0  0  0  0  0  2           0  0  0
   -4.8849   -0.0169   -1.1661 N   0  0  0  0  0  3           0  0  0
   -5.7202   -0.7920   -3.0682 N   0  0  0  0  0  3           0  0  0
    6.1445    0.3431    0.6126 N   0  0  0  0  0  3           0  0  0
    3.6054   -0.0007   -0.6241 N   0  0  0  0  0  3           0  0  0
    1.4083    0.0000   -0.0000 N   0  0  0  0  0  3           0  0  0
   -5.7211    0.5796   -3.0917 C   0  0  0  0  0  4           0  0  0
   -5.2108   -1.1365   -1.9044 C   0  0  0  0  0  4           0  0  0
   -5.1951    1.1026   -1.9213 C   0  0  0  0  0  4           0  0  0
    5.9978   -0.4232   -0.5966 C   0  0  0  0  0  4           0  0  0
    4.7518   -0.5451   -1.2347 C   0  0  0  0  0  4           0  0  0
    0.0000    0.0000    0.0000 C   0  0  0  0  0  4           0  0  0
   -2.8126   -0.0124    0.1073 C   0  0  0  0  0  4           0  0  0
    7.1469   -0.9677   -1.1822 C   0  0  0  0  0  4           0  0  0
    4.6752   -1.2284   -2.4559 C   0  0  0  0  0  4           0  0  0
   -0.6593    0.0000    1.2330 C   0  0  0  0  0  4           0  0  0
   -0.7494    0.0011   -1.1808 C   0  0  0  0  0  4           0  0  0
   -2.0550   -0.0051    1.2855 C   0  0  0  0  0  4           0  0  0
   -2.1462   -0.0007   -1.1249 C   0  0  0  0  0  4           0  0  0
    7.0568   -1.6475   -2.3956 C   0  0  0  0  0  4           0  0  0
    5.8240   -1.7764   -3.0310 C   0  0  0  0  0  4           0  0  0
    7.1818   -1.7627    1.9207 C   0  0  1  0  0  4           0  0  0
    2.2843    0.0000   -1.0635 C   0  0  0  0  0  4           0  0  0
   -4.9653    2.4785   -1.4253 C   0  0  0  0  0  4           0  0  0
   -6.0466    4.1914   -0.2284 C   0  0  0  0  0  4           0  0  0
   -4.3097   -0.0079    0.1647 C   0  0  0  0  0  4           0  0  0
   -5.0219   -2.5392   -1.4490 C   0  0  0  0  0  4           0  0  0
   -6.2431   -3.0791   -0.7110 C   0  0  0  0  0  4           0  0  0
   -6.0595   -4.5192   -0.2390 C   0  0  0  0  0  4           0  0  0
   -7.2765   -5.0594    0.4972 C   0  0  0  0  0  4           0  0  0
  1 15  1  0     0  0
  2  6  2  0     0  0
  2  7  2  0     0  0
  2 12  1  0     0  0
  2 30  1  0     0  0
  3 30  1  0     0  0
  4 30  1  0     0  0
  5 30  1  0     0  0
  8 31  2  0     0  0
  9 32  1  0     0  0
  9 33  1  0     0  0
 10 16  1  0     0  0
 10 17  1  0     0  0
 10 34  1  0     0  0
 11 15  1  0     0  0
 11 16  2  0     0  0
 12 18  1  0     0  0
 13 19  1  0     0  0
 13 31  1  0     0  0
 14 20  1  0     0  0
 14 31  1  0     0  0
 15 17  2  0     0  0
 16 35  1  0     0  0
 17 32  1  0     0  0
 18 19  1  0     0  0
 18 22  2  0     0  0
 19 23  2  0     0  0
 20 24  2  0     0  0
 20 25  1  0     0  0
 21 26  2  0     0  0
 21 27  1  0     0  0
 21 34  1  0     0  0
 22 28  1  0     0  0
 23 29  1  0     0  0
 24 26  1  0     0  0
 25 27  2  0     0  0
 28 29  2  0     0  0
 35 36  1  0     0  0
 36 37  1  0     0  0
 37 38  1  0     0  0
M  END
> <standard_type>
pIC50

> <# Confs.>
25

> <canonical_smiles>
CCCCC1=NC(Cl)=C(COC)N1CC2=CC=C(NC(NC3=CC=CC=C3NS(C(F)(F)F)(=O)=O)=O)C=C2

> <standard_relation>
=

> <Publication_ID>
nan

> <predicted_activity_value>
5.0

> <actual_activity_value>
5.619788758288394

> <Compound>
16

> <standard_units>
nM

> hash
3731556818081296511

$$$$
16_
XXILIB    08252103513D 0   0.00000     0.00000

 38 40  0     1  0            999 V2000
   -6.0724   -4.3228    2.5421 Cl  0  0  0  0  0  1           0  0  0
    6.0732   -1.3866    1.5849 S   0  0  1  0  0  6           0  0  0
    8.6205   -1.4039    1.0809 F   0  0  0  0  0  1           0  0  0
    7.7556   -3.3546    1.5339 F   0  0  0  0  0  1           0  0  0
    7.3837   -2.4226   -0.4029 F   0  0  0  0  0  1           0  0  0
    6.2944   -1.1619    3.0001 O   0  0  0  0  0  2           0  0  0
    4.9303   -2.1524    1.1241 O   0  0  0  0  0  2           0  0  0
    1.9427    0.0000   -2.2467 O   0  0  0  0  0  2           0  0  0
   -6.1838   -2.7334   -1.1007 O   0  0  0  0  0  2           0  0  0
   -4.7989   -0.9548    1.1476 N   0  0  0  0  0  3           0  0  0
   -5.4868   -1.7695    3.0918 N   0  0  0  0  0  3           0  0  0
    6.1057    0.1108    0.7291 N   0  0  0  0  0  3           0  0  0
    3.6054   -0.0007   -0.6241 N   0  0  0  0  0  3           0  0  0
    1.4083    0.0000    0.0000 N   0  0  0  0  0  3           0  0  0
   -5.5304   -2.7559    2.1396 C   0  0  0  0  0  4           0  0  0
   -5.0412   -0.6921    2.4807 C   0  0  0  0  0  4           0  0  0
   -5.0966   -2.2869    0.9099 C   0  0  0  0  0  4           0  0  0
    6.0337   -0.0022   -0.7037 C   0  0  0  0  0  4           0  0  0
    4.7981   -0.0016   -1.3730 C   0  0  0  0  0  4           0  0  0
    0.0000    0.0000    0.0000 C   0  0  0  0  0  4           0  0  0
   -2.8126   -0.0124    0.1073 C   0  0  0  0  0  4           0  0  0
    7.2300   -0.0147   -1.4306 C   0  0  0  0  0  4           0  0  0
    4.7817   -0.0261   -2.7742 C   0  0  0  0  0  4           0  0  0
   -0.6593    0.0000    1.2330 C   0  0  0  0  0  4           0  0  0
   -0.7494    0.0011   -1.1808 C   0  0  0  0  0  4           0  0  0
   -2.0550   -0.0051    1.2855 C   0  0  0  0  0  4           0  0  0
   -2.1462   -0.0007   -1.1249 C   0  0  0  0  0  4           0  0  0
    7.2001   -0.0419   -2.8238 C   0  0  0  0  0  4           0  0  0
    5.9788   -0.0465   -3.4935 C   0  0  0  0  0  4           0  0  0
    7.5137   -2.1698    0.9223 C   0  0  1  0  0  4           0  0  0
    2.2843    0.0000   -1.0635 C   0  0  0  0  0  4           0  0  0
   -4.9431   -2.9042   -0.4270 C   0  0  0  0  0  4           0  0  0
   -6.1525   -3.2933   -2.4073 C   0  0  0  0  0  4           0  0  0
   -4.3097   -0.0079    0.1647 C   0  0  0  0  0  4           0  0  0
   -4.8364    0.6258    3.1380 C   0  0  0  0  0  4           0  0  0
   -6.0839    1.5022    3.0818 C   0  0  0  0  0  4           0  0  0
   -5.8842    2.8581    3.7541 C   0  0  0  0  0  4           0  0  0
   -7.1273    3.7337    3.6991 C   0  0  0  0  0  4           0  0  0
  1 15  1  0     0  0
  2  6  2  0     0  0
  2  7  2  0     0  0
  2 12  1  0     0  0
  2 30  1  0     0  0
  3 30  1  0     0  0
  4 30  1  0     0  0
  5 30  1  0     0  0
  8 31  2  0     0  0
  9 32  1  0     0  0
  9 33  1  0     0  0
 10 16  1  0     0  0
 10 17  1  0     0  0
 10 34  1  0     0  0
 11 15  1  0     0  0
 11 16  2  0     0  0
 12 18  1  0     0  0
 13 19  1  0     0  0
 13 31  1  0     0  0
 14 20  1  0     0  0
 14 31  1  0     0  0
 15 17  2  0     0  0
 16 35  1  0     0  0
 17 32  1  0     0  0
 18 19  1  0     0  0
 18 22  2  0     0  0
 19 23  2  0     0  0
 20 24  2  0     0  0
 20 25  1  0     0  0
 21 26  2  0     0  0
 21 27  1  0     0  0
 21 34  1  0     0  0
 22 28  1  0     0  0
 23 29  1  0     0  0
 24 26  1  0     0  0
 25 27  2  0     0  0
 28 29  2  0     0  0
 35 36  1  0     0  0
 36 37  1  0     0  0
 37 38  1  0     0  0
M  END
> <standard_type>
pIC50

> <# Confs.>
25

> <canonical_smiles>
CCCCC1=NC(Cl)=C(COC)N1CC2=CC=C(NC(NC3=CC=CC=C3NS(C(F)(F)F)(=O)=O)=O)C=C2

> <standard_relation>
=

> <Publication_ID>
nan

> <predicted_activity_value>
5.0

> <actual_activity_value>
5.619788758288394

> <Compound>
16

> <standard_units>
nM

> hash
3731556818081296511

$$$$
16_
XXILIB    08252103513D 0   0.00000     0.00000

 38 40  0     1  0            999 V2000
   -6.2826   -1.4987   -4.4464 Cl  0  0  0  0  0  1           0  0  0
    5.9109   -0.5425    2.0744 S   0  0  1  0  0  6           0  0  0
    8.4010   -1.1989    1.7409 F   0  0  0  0  0  1           0  0  0
    7.2582   -2.5368    3.0303 F   0  0  0  0  0  1           0  0  0
    6.9601   -2.5897    0.8701 F   0  0  0  0  0  1           0  0  0
    6.2216    0.2885    3.2211 O   0  0  0  0  0  2           0  0  0
    4.6438   -1.2440    1.9870 O   0  0  0  0  0  2           0  0  0
    1.9427    0.0000   -2.2467 O   0  0  0  0  0  2           0  0  0
   -6.1969   -2.8778   -0.6861 O   0  0  0  0  0  2           0  0  0
   -4.8849   -0.0169   -1.1661 N   0  0  0  0  0  3           0  0  0
   -5.7016    0.7324   -3.0866 N   0  0  0  0  0  3           0  0  0
    6.1445    0.3431    0.6126 N   0  0  0  0  0  3           0  0  0
    3.6054   -0.0007   -0.6241 N   0  0  0  0  0  3           0  0  0
    1.4083    0.0000   -0.0000 N   0  0  0  0  0  3           0  0  0
   -5.7113   -0.6393   -3.0877 C   0  0  0  0  0  4           0  0  0
   -5.2048    1.0926   -1.9221 C   0  0  0  0  0  4           0  0  0
   -5.2168   -1.1464   -1.8967 C   0  0  0  0  0  4           0  0  0
    5.9978   -0.4232   -0.5966 C   0  0  0  0  0  4           0  0  0
    4.7518   -0.5451   -1.2347 C   0  0  0  0  0  4           0  0  0
    0.0000    0.0000    0.0000 C   0  0  0  0  0  4           0  0  0
   -2.8126   -0.0124    0.1073 C   0  0  0  0  0  4           0  0  0
    7.1469   -0.9677   -1.1822 C   0  0  0  0  0  4           0  0  0
    4.6752   -1.2284   -2.4559 C   0  0  0  0  0  4           0  0  0
   -0.6593    0.0000    1.2330 C   0  0  0  0  0  4           0  0  0
   -0.7494    0.0011   -1.1808 C   0  0  0  0  0  4           0  0  0
   -2.0550   -0.0051    1.2855 C   0  0  0  0  0  4           0  0  0
   -2.1462   -0.0007   -1.1249 C   0  0  0  0  0  4           0  0  0
    7.0568   -1.6475   -2.3956 C   0  0  0  0  0  4           0  0  0
    5.8240   -1.7764   -3.0310 C   0  0  0  0  0  4           0  0  0
    7.1818   -1.7627    1.9207 C   0  0  1  0  0  4           0  0  0
    2.2843    0.0000   -1.0635 C   0  0  0  0  0  4           0  0  0
   -5.0062   -2.5154   -1.3738 C   0  0  0  0  0  4           0  0  0
   -6.1080   -4.1862   -0.1369 C   0  0  0  0  0  4           0  0  0
   -4.3097   -0.0079    0.1647 C   0  0  0  0  0  4           0  0  0
   -5.0094    2.5014   -1.4884 C   0  0  0  0  0  4           0  0  0
   -6.2286    3.0586   -0.7600 C   0  0  0  0  0  4           0  0  0
   -6.0383    4.5050   -0.3104 C   0  0  0  0  0  4           0  0  0
   -7.2532    5.0625    0.4163 C   0  0  0  0  0  4           0  0  0
  1 15  1  0     0  0
  2  6  2  0     0  0
  2  7  2  0     0  0
  2 12  1  0     0  0
  2 30  1  0     0  0
  3 30  1  0     0  0
  4 30  1  0     0  0
  5 30  1  0     0  0
  8 31  2  0     0  0
  9 32  1  0     0  0
  9 33  1  0     0  0
 10 16  1  0     0  0
 10 17  1  0     0  0
 10 34  1  0     0  0
 11 15  1  0     0  0
 11 16  2  0     0  0
 12 18  1  0     0  0
 13 19  1  0     0  0
 13 31  1  0     0  0
 14 20  1  0     0  0
 14 31  1  0     0  0
 15 17  2  0     0  0
 16 35  1  0     0  0
 17 32  1  0     0  0
 18 19  1  0     0  0
 18 22  2  0     0  0
 19 23  2  0     0  0
 20 24  2  0     0  0
 20 25  1  0     0  0
 21 26  2  0     0  0
 21 27  1  0     0  0
 21 34  1  0     0  0
 22 28  1  0     0  0
 23 29  1  0     0  0
 24 26  1  0     0  0
 25 27  2  0     0  0
 28 29  2  0     0  0
 35 36  1  0     0  0
 36 37  1  0     0  0
 37 38  1  0     0  0
M  END
> <standard_type>
pIC50

> <# Confs.>
25

> <canonical_smiles>
CCCCC1=NC(Cl)=C(COC)N1CC2=CC=C(NC(NC3=CC=CC=C3NS(C(F)(F)F)(=O)=O)=O)C=C2

> <standard_relation>
=

> <Publication_ID>
nan

> <predicted_activity_value>
5.0

> <actual_activity_value>
5.619788758288394

> <Compound>
16

> <standard_units>
nM

> hash
3731556818081296511

$$$$
16_
XXILIB    08252103513D 0   0.00000     0.00000

 38 40  0     1  0            999 V2000
   -6.2826   -1.4987   -4.4464 Cl  0  0  0  0  0  1           0  0  0
    6.0732   -1.3866    1.5849 S   0  0  1  0  0  6           0  0  0
    8.6205   -1.4039    1.0809 F   0  0  0  0  0  1           0  0  0
    7.7556   -3.3546    1.5339 F   0  0  0  0  0  1           0  0  0
    7.3837   -2.4226   -0.4029 F   0  0  0  0  0  1           0  0  0
    6.2944   -1.1619    3.0001 O   0  0  0  0  0  2           0  0  0
    4.9303   -2.1524    1.1241 O   0  0  0  0  0  2           0  0  0
    1.9427    0.0000   -2.2467 O   0  0  0  0  0  2           0  0  0
   -6.1969   -2.8778   -0.6861 O   0  0  0  0  0  2           0  0  0
   -4.8849   -0.0169   -1.1661 N   0  0  0  0  0  3           0  0  0
   -5.7016    0.7324   -3.0866 N   0  0  0  0  0  3           0  0  0
    6.1057    0.1108    0.7291 N   0  0  0  0  0  3           0  0  0
    3.6054   -0.0007   -0.6241 N   0  0  0  0  0  3           0  0  0
    1.4083    0.0000    0.0000 N   0  0  0  0  0  3           0  0  0
   -5.7113   -0.6393   -3.0877 C   0  0  0  0  0  4           0  0  0
   -5.2048    1.0926   -1.9221 C   0  0  0  0  0  4           0  0  0
   -5.2168   -1.1464   -1.8967 C   0  0  0  0  0  4           0  0  0
    6.0337   -0.0022   -0.7037 C   0  0  0  0  0  4           0  0  0
    4.7981   -0.0016   -1.3730 C   0  0  0  0  0  4           0  0  0
    0.0000    0.0000    0.0000 C   0  0  0  0  0  4           0  0  0
   -2.8126   -0.0124    0.1073 C   0  0  0  0  0  4           0  0  0
    7.2300   -0.0147   -1.4306 C   0  0  0  0  0  4           0  0  0
    4.7817   -0.0261   -2.7742 C   0  0  0  0  0  4           0  0  0
   -0.6593    0.0000    1.2330 C   0  0  0  0  0  4           0  0  0
   -0.7494    0.0011   -1.1808 C   0  0  0  0  0  4           0  0  0
   -2.0550   -0.0051    1.2855 C   0  0  0  0  0  4           0  0  0
   -2.1462   -0.0007   -1.1249 C   0  0  0  0  0  4           0  0  0
    7.2001   -0.0419   -2.8238 C   0  0  0  0  0  4           0  0  0
    5.9788   -0.0465   -3.4935 C   0  0  0  0  0  4           0  0  0
    7.5137   -2.1698    0.9223 C   0  0  1  0  0  4           0  0  0
    2.2843    0.0000   -1.0635 C   0  0  0  0  0  4           0  0  0
   -5.0062   -2.5154   -1.3738 C   0  0  0  0  0  4           0  0  0
   -6.1080   -4.1862   -0.1369 C   0  0  0  0  0  4           0  0  0
   -4.3097   -0.0079    0.1647 C   0  0  0  0  0  4           0  0  0
   -5.0094    2.5014   -1.4884 C   0  0  0  0  0  4           0  0  0
   -4.3903    3.3649   -2.5832 C   0  0  0  0  0  4           0  0  0
   -3.0193    2.8618   -3.0280 C   0  0  0  0  0  4           0  0  0
   -2.4002    3.7217   -4.1199 C   0  0  0  0  0  4           0  0  0
  1 15  1  0     0  0
  2  6  2  0     0  0
  2  7  2  0     0  0
  2 12  1  0     0  0
  2 30  1  0     0  0
  3 30  1  0     0  0
  4 30  1  0     0  0
  5 30  1  0     0  0
  8 31  2  0     0  0
  9 32  1  0     0  0
  9 33  1  0     0  0
 10 16  1  0     0  0
 10 17  1  0     0  0
 10 34  1  0     0  0
 11 15  1  0     0  0
 11 16  2  0     0  0
 12 18  1  0     0  0
 13 19  1  0     0  0
 13 31  1  0     0  0
 14 20  1  0     0  0
 14 31  1  0     0  0
 15 17  2  0     0  0
 16 35  1  0     0  0
 17 32  1  0     0  0
 18 19  1  0     0  0
 18 22  2  0     0  0
 19 23  2  0     0  0
 20 24  2  0     0  0
 20 25  1  0     0  0
 21 26  2  0     0  0
 21 27  1  0     0  0
 21 34  1  0     0  0
 22 28  1  0     0  0
 23 29  1  0     0  0
 24 26  1  0     0  0
 25 27  2  0     0  0
 28 29  2  0     0  0
 35 36  1  0     0  0
 36 37  1  0     0  0
 37 38  1  0     0  0
M  END
> <standard_type>
pIC50

> <# Confs.>
25

> <canonical_smiles>
CCCCC1=NC(Cl)=C(COC)N1CC2=CC=C(NC(NC3=CC=CC=C3NS(C(F)(F)F)(=O)=O)=O)C=C2

> <standard_relation>
=

> <Publication_ID>
nan

> <predicted_activity_value>
5.0

> <actual_activity_value>
5.619788758288394

> <Compound>
16

> <standard_units>
nM

> hash
3731556818081296511

$$$$
16_
XXILIB    08252103513D 0   0.00000     0.00000

 38 40  0     1  0            999 V2000
   -6.2826   -1.4987   -4.4464 Cl  0  0  0  0  0  1           0  0  0
    6.0732   -1.3866    1.5849 S   0  0  1  0  0  6           0  0  0
    8.5030   -0.7415    2.2353 F   0  0  0  0  0  1           0  0  0
    8.0364   -2.8662    2.3991 F   0  0  0  0  0  1           0  0  0
    8.3282   -1.9644    0.4345 F   0  0  0  0  0  1           0  0  0
    5.5935   -1.1824    2.9378 O   0  0  0  0  0  2           0  0  0
    5.4723   -2.3909    0.7274 O   0  0  0  0  0  2           0  0  0
    1.9427    0.0000   -2.2467 O   0  0  0  0  0  2           0  0  0
   -6.1969   -2.8778   -0.6861 O   0  0  0  0  0  2           0  0  0
   -4.8849   -0.0169   -1.1661 N   0  0  0  0  0  3           0  0  0
   -5.7016    0.7324   -3.0866 N   0  0  0  0  0  3           0  0  0
    6.1057    0.1108    0.7291 N   0  0  0  0  0  3           0  0  0
    3.6054   -0.0007   -0.6241 N   0  0  0  0  0  3           0  0  0
    1.4083    0.0000    0.0000 N   0  0  0  0  0  3           0  0  0
   -5.7113   -0.6393   -3.0877 C   0  0  0  0  0  4           0  0  0
   -5.2048    1.0926   -1.9221 C   0  0  0  0  0  4           0  0  0
   -5.2168   -1.1464   -1.8967 C   0  0  0  0  0  4           0  0  0
    6.0337   -0.0022   -0.7037 C   0  0  0  0  0  4           0  0  0
    4.7981   -0.0016   -1.3730 C   0  0  0  0  0  4           0  0  0
    0.0000    0.0000    0.0000 C   0  0  0  0  0  4           0  0  0
   -2.8126   -0.0124    0.1073 C   0  0  0  0  0  4           0  0  0
    7.2300   -0.0147   -1.4306 C   0  0  0  0  0  4           0  0  0
    4.7817   -0.0261   -2.7742 C   0  0  0  0  0  4           0  0  0
   -0.6593    0.0000    1.2330 C   0  0  0  0  0  4           0  0  0
   -0.7494    0.0011   -1.1808 C   0  0  0  0  0  4           0  0  0
   -2.0550   -0.0051    1.2855 C   0  0  0  0  0  4           0  0  0
   -2.1462   -0.0007   -1.1249 C   0  0  0  0  0  4           0  0  0
    7.2001   -0.0419   -2.8238 C   0  0  0  0  0  4           0  0  0
    5.9788   -0.0465   -3.4935 C   0  0  0  0  0  4           0  0  0
    7.8018   -1.7515    1.6651 C   0  0  1  0  0  4           0  0  0
    2.2843    0.0000   -1.0635 C   0  0  0  0  0  4           0  0  0
   -5.0062   -2.5154   -1.3738 C   0  0  0  0  0  4           0  0  0
   -6.1080   -4.1862   -0.1369 C   0  0  0  0  0  4           0  0  0
   -4.3097   -0.0079    0.1647 C   0  0  0  0  0  4           0  0  0
   -5.0094    2.5014   -1.4884 C   0  0  0  0  0  4           0  0  0
   -6.2286    3.0586   -0.7600 C   0  0  0  0  0  4           0  0  0
   -6.0383    4.5050   -0.3104 C   0  0  0  0  0  4           0  0  0
   -4.8663    4.6776    0.6444 C   0  0  0  0  0  4           0  0  0
  1 15  1  0     0  0
  2  6  2  0     0  0
  2  7  2  0     0  0
  2 12  1  0     0  0
  2 30  1  0     0  0
  3 30  1  0     0  0
  4 30  1  0     0  0
  5 30  1  0     0  0
  8 31  2  0     0  0
  9 32  1  0     0  0
  9 33  1  0     0  0
 10 16  1  0     0  0
 10 17  1  0     0  0
 10 34  1  0     0  0
 11 15  1  0     0  0
 11 16  2  0     0  0
 12 18  1  0     0  0
 13 19  1  0     0  0
 13 31  1  0     0  0
 14 20  1  0     0  0
 14 31  1  0     0  0
 15 17  2  0     0  0
 16 35  1  0     0  0
 17 32  1  0     0  0
 18 19  1  0     0  0
 18 22  2  0     0  0
 19 23  2  0     0  0
 20 24  2  0     0  0
 20 25  1  0     0  0
 21 26  2  0     0  0
 21 27  1  0     0  0
 21 34  1  0     0  0
 22 28  1  0     0  0
 23 29  1  0     0  0
 24 26  1  0     0  0
 25 27  2  0     0  0
 28 29  2  0     0  0
 35 36  1  0     0  0
 36 37  1  0     0  0
 37 38  1  0     0  0
M  END
> <standard_type>
pIC50

> <# Confs.>
25

> <canonical_smiles>
CCCCC1=NC(Cl)=C(COC)N1CC2=CC=C(NC(NC3=CC=CC=C3NS(C(F)(F)F)(=O)=O)=O)C=C2

> <standard_relation>
=

> <Publication_ID>
nan

> <predicted_activity_value>
5.0

> <actual_activity_value>
5.619788758288394

> <Compound>
16

> <standard_units>
nM

> hash
3731556818081296511

$$$$
16_
XXILIB    08252103513D 0   0.00000     0.00000

 38 40  0     1  0            999 V2000
   -6.3234    1.4206   -4.4485 Cl  0  0  0  0  0  1           0  0  0
    6.0732   -1.3866    1.5849 S   0  0  1  0  0  6           0  0  0
    8.5030   -0.7415    2.2353 F   0  0  0  0  0  1           0  0  0
    8.0364   -2.8662    2.3991 F   0  0  0  0  0  1           0  0  0
    8.3282   -1.9644    0.4345 F   0  0  0  0  0  1           0  0  0
    5.5935   -1.1824    2.9378 O   0  0  0  0  0  2           0  0  0
    5.4723   -2.3909    0.7274 O   0  0  0  0  0  2           0  0  0
    1.9427    0.0000   -2.2467 O   0  0  0  0  0  2           0  0  0
   -6.1536    2.8736   -0.7513 O   0  0  0  0  0  2           0  0  0
   -4.8849   -0.0169   -1.1661 N   0  0  0  0  0  3           0  0  0
   -5.7202   -0.7920   -3.0682 N   0  0  0  0  0  3           0  0  0
    6.1057    0.1108    0.7291 N   0  0  0  0  0  3           0  0  0
    3.6054   -0.0007   -0.6241 N   0  0  0  0  0  3           0  0  0
    1.4083    0.0000    0.0000 N   0  0  0  0  0  3           0  0  0
   -5.7211    0.5796   -3.0917 C   0  0  0  0  0  4           0  0  0
   -5.2108   -1.1365   -1.9044 C   0  0  0  0  0  4           0  0  0
   -5.1951    1.1026   -1.9213 C   0  0  0  0  0  4           0  0  0
    6.0337   -0.0022   -0.7037 C   0  0  0  0  0  4           0  0  0
    4.7981   -0.0016   -1.3730 C   0  0  0  0  0  4           0  0  0
    0.0000    0.0000    0.0000 C   0  0  0  0  0  4           0  0  0
   -2.8126   -0.0124    0.1073 C   0  0  0  0  0  4           0  0  0
    7.2300   -0.0147   -1.4306 C   0  0  0  0  0  4           0  0  0
    4.7817   -0.0261   -2.7742 C   0  0  0  0  0  4           0  0  0
   -0.6593    0.0000    1.2330 C   0  0  0  0  0  4           0  0  0
   -0.7494    0.0011   -1.1808 C   0  0  0  0  0  4           0  0  0
   -2.0550   -0.0051    1.2855 C   0  0  0  0  0  4           0  0  0
   -2.1462   -0.0007   -1.1249 C   0  0  0  0  0  4           0  0  0
    7.2001   -0.0419   -2.8238 C   0  0  0  0  0  4           0  0  0
    5.9788   -0.0465   -3.4935 C   0  0  0  0  0  4           0  0  0
    7.8018   -1.7515    1.6651 C   0  0  1  0  0  4           0  0  0
    2.2843    0.0000   -1.0635 C   0  0  0  0  0  4           0  0  0
   -4.9653    2.4785   -1.4253 C   0  0  0  0  0  4           0  0  0
   -6.0466    4.1914   -0.2284 C   0  0  0  0  0  4           0  0  0
   -4.3097   -0.0079    0.1647 C   0  0  0  0  0  4           0  0  0
   -5.0219   -2.5392   -1.4490 C   0  0  0  0  0  4           0  0  0
   -4.4078   -3.4227   -2.5306 C   0  0  0  0  0  4           0  0  0
   -4.2096   -4.8655   -2.0730 C   0  0  0  0  0  4           0  0  0
   -3.5973   -5.7482   -3.1504 C   0  0  0  0  0  4           0  0  0
  1 15  1  0     0  0
  2  6  2  0     0  0
  2  7  2  0     0  0
  2 12  1  0     0  0
  2 30  1  0     0  0
  3 30  1  0     0  0
  4 30  1  0     0  0
  5 30  1  0     0  0
  8 31  2  0     0  0
  9 32  1  0     0  0
  9 33  1  0     0  0
 10 16  1  0     0  0
 10 17  1  0     0  0
 10 34  1  0     0  0
 11 15  1  0     0  0
 11 16  2  0     0  0
 12 18  1  0     0  0
 13 19  1  0     0  0
 13 31  1  0     0  0
 14 20  1  0     0  0
 14 31  1  0     0  0
 15 17  2  0     0  0
 16 35  1  0     0  0
 17 32  1  0     0  0
 18 19  1  0     0  0
 18 22  2  0     0  0
 19 23  2  0     0  0
 20 24  2  0     0  0
 20 25  1  0     0  0
 21 26  2  0     0  0
 21 27  1  0     0  0
 21 34  1  0     0  0
 22 28  1  0     0  0
 23 29  1  0     0  0
 24 26  1  0     0  0
 25 27  2  0     0  0
 28 29  2  0     0  0
 35 36  1  0     0  0
 36 37  1  0     0  0
 37 38  1  0     0  0
M  END
> <standard_type>
pIC50

> <# Confs.>
25

> <canonical_smiles>
CCCCC1=NC(Cl)=C(COC)N1CC2=CC=C(NC(NC3=CC=CC=C3NS(C(F)(F)F)(=O)=O)=O)C=C2

> <standard_relation>
=

> <Publication_ID>
nan

> <predicted_activity_value>
5.0

> <actual_activity_value>
5.619788758288394

> <Compound>
16

> <standard_units>
nM

> hash
3731556818081296511

$$$$
16_
XXILIB    08252103513D 0   0.00000     0.00000

 38 40  0     1  0            999 V2000
   -6.3234    1.4206   -4.4485 Cl  0  0  0  0  0  1           0  0  0
    6.0732   -1.3866    1.5849 S   0  0  1  0  0  6           0  0  0
    8.5030   -0.7415    2.2353 F   0  0  0  0  0  1           0  0  0
    8.0364   -2.8662    2.3991 F   0  0  0  0  0  1           0  0  0
    8.3282   -1.9644    0.4345 F   0  0  0  0  0  1           0  0  0
    5.5935   -1.1824    2.9378 O   0  0  0  0  0  2           0  0  0
    5.4723   -2.3909    0.7274 O   0  0  0  0  0  2           0  0  0
    1.9427    0.0000   -2.2467 O   0  0  0  0  0  2           0  0  0
   -6.1536    2.8736   -0.7513 O   0  0  0  0  0  2           0  0  0
   -4.8849   -0.0169   -1.1661 N   0  0  0  0  0  3           0  0  0
   -5.7202   -0.7920   -3.0682 N   0  0  0  0  0  3           0  0  0
    6.1057    0.1108    0.7291 N   0  0  0  0  0  3           0  0  0
    3.6054   -0.0007   -0.6241 N   0  0  0  0  0  3           0  0  0
    1.4083    0.0000    0.0000 N   0  0  0  0  0  3           0  0  0
   -5.7211    0.5796   -3.0917 C   0  0  0  0  0  4           0  0  0
   -5.2108   -1.1365   -1.9044 C   0  0  0  0  0  4           0  0  0
   -5.1951    1.1026   -1.9213 C   0  0  0  0  0  4           0  0  0
    6.0337   -0.0022   -0.7037 C   0  0  0  0  0  4           0  0  0
    4.7981   -0.0016   -1.3730 C   0  0  0  0  0  4           0  0  0
    0.0000    0.0000    0.0000 C   0  0  0  0  0  4           0  0  0
   -2.8126   -0.0124    0.1073 C   0  0  0  0  0  4           0  0  0
    7.2300   -0.0147   -1.4306 C   0  0  0  0  0  4           0  0  0
    4.7817   -0.0261   -2.7742 C   0  0  0  0  0  4           0  0  0
   -0.6593    0.0000    1.2330 C   0  0  0  0  0  4           0  0  0
   -0.7494    0.0011   -1.1808 C   0  0  0  0  0  4           0  0  0
   -2.0550   -0.0051    1.2855 C   0  0  0  0  0  4           0  0  0
   -2.1462   -0.0007   -1.1249 C   0  0  0  0  0  4           0  0  0
    7.2001   -0.0419   -2.8238 C   0  0  0  0  0  4           0  0  0
    5.9788   -0.0465   -3.4935 C   0  0  0  0  0  4           0  0  0
    7.8018   -1.7515    1.6651 C   0  0  1  0  0  4           0  0  0
    2.2843    0.0000   -1.0635 C   0  0  0  0  0  4           0  0  0
   -4.9653    2.4785   -1.4253 C   0  0  0  0  0  4           0  0  0
   -6.0466    4.1914   -0.2284 C   0  0  0  0  0  4           0  0  0
   -4.3097   -0.0079    0.1647 C   0  0  0  0  0  4           0  0  0
   -5.0219   -2.5392   -1.4490 C   0  0  0  0  0  4           0  0  0
   -6.2431   -3.0791   -0.7110 C   0  0  0  0  0  4           0  0  0
   -6.0595   -4.5192   -0.2390 C   0  0  0  0  0  4           0  0  0
   -5.8012   -5.4877   -1.3836 C   0  0  0  0  0  4           0  0  0
  1 15  1  0     0  0
  2  6  2  0     0  0
  2  7  2  0     0  0
  2 12  1  0     0  0
  2 30  1  0     0  0
  3 30  1  0     0  0
  4 30  1  0     0  0
  5 30  1  0     0  0
  8 31  2  0     0  0
  9 32  1  0     0  0
  9 33  1  0     0  0
 10 16  1  0     0  0
 10 17  1  0     0  0
 10 34  1  0     0  0
 11 15  1  0     0  0
 11 16  2  0     0  0
 12 18  1  0     0  0
 13 19  1  0     0  0
 13 31  1  0     0  0
 14 20  1  0     0  0
 14 31  1  0     0  0
 15 17  2  0     0  0
 16 35  1  0     0  0
 17 32  1  0     0  0
 18 19  1  0     0  0
 18 22  2  0     0  0
 19 23  2  0     0  0
 20 24  2  0     0  0
 20 25  1  0     0  0
 21 26  2  0     0  0
 21 27  1  0     0  0
 21 34  1  0     0  0
 22 28  1  0     0  0
 23 29  1  0     0  0
 24 26  1  0     0  0
 25 27  2  0     0  0
 28 29  2  0     0  0
 35 36  1  0     0  0
 36 37  1  0     0  0
 37 38  1  0     0  0
M  END
> <standard_type>
pIC50

> <# Confs.>
25

> <canonical_smiles>
CCCCC1=NC(Cl)=C(COC)N1CC2=CC=C(NC(NC3=CC=CC=C3NS(C(F)(F)F)(=O)=O)=O)C=C2

> <standard_relation>
=

> <Publication_ID>
nan

> <predicted_activity_value>
5.0

> <actual_activity_value>
5.619788758288394

> <Compound>
16

> <standard_units>
nM

> hash
3731556818081296511

$$$$
16_
XXILIB    08252103513D 0   0.00000     0.00000

 38 40  0     1  0            999 V2000
   -6.3234    1.4206   -4.4485 Cl  0  0  0  0  0  1           0  0  0
    6.0732   -1.3866    1.5849 S   0  0  1  0  0  6           0  0  0
    8.6205   -1.4039    1.0809 F   0  0  0  0  0  1           0  0  0
    7.7556   -3.3546    1.5339 F   0  0  0  0  0  1           0  0  0
    7.3837   -2.4226   -0.4029 F   0  0  0  0  0  1           0  0  0
    6.2944   -1.1619    3.0001 O   0  0  0  0  0  2           0  0  0
    4.9303   -2.1524    1.1241 O   0  0  0  0  0  2           0  0  0
    1.9427    0.0000   -2.2467 O   0  0  0  0  0  2           0  0  0
   -6.1536    2.8736   -0.7513 O   0  0  0  0  0  2           0  0  0
   -4.8849   -0.0169   -1.1661 N   0  0  0  0  0  3           0  0  0
   -5.7202   -0.7920   -3.0682 N   0  0  0  0  0  3           0  0  0
    6.1057    0.1108    0.7291 N   0  0  0  0  0  3           0  0  0
    3.6054   -0.0007   -0.6241 N   0  0  0  0  0  3           0  0  0
    1.4083    0.0000    0.0000 N   0  0  0  0  0  3           0  0  0
   -5.7211    0.5796   -3.0917 C   0  0  0  0  0  4           0  0  0
   -5.2108   -1.1365   -1.9044 C   0  0  0  0  0  4           0  0  0
   -5.1951    1.1026   -1.9213 C   0  0  0  0  0  4           0  0  0
    6.0337   -0.0022   -0.7037 C   0  0  0  0  0  4           0  0  0
    4.7981   -0.0016   -1.3730 C   0  0  0  0  0  4           0  0  0
    0.0000    0.0000    0.0000 C   0  0  0  0  0  4           0  0  0
   -2.8126   -0.0124    0.1073 C   0  0  0  0  0  4           0  0  0
    7.2300   -0.0147   -1.4306 C   0  0  0  0  0  4           0  0  0
    4.7817   -0.0261   -2.7742 C   0  0  0  0  0  4           0  0  0
   -0.6593    0.0000    1.2330 C   0  0  0  0  0  4           0  0  0
   -0.7494    0.0011   -1.1808 C   0  0  0  0  0  4           0  0  0
   -2.0550   -0.0051    1.2855 C   0  0  0  0  0  4           0  0  0
   -2.1462   -0.0007   -1.1249 C   0  0  0  0  0  4           0  0  0
    7.2001   -0.0419   -2.8238 C   0  0  0  0  0  4           0  0  0
    5.9788   -0.0465   -3.4935 C   0  0  0  0  0  4           0  0  0
    7.5137   -2.1698    0.9223 C   0  0  1  0  0  4           0  0  0
    2.2843    0.0000   -1.0635 C   0  0  0  0  0  4           0  0  0
   -4.9653    2.4785   -1.4253 C   0  0  0  0  0  4           0  0  0
   -6.0466    4.1914   -0.2284 C   0  0  0  0  0  4           0  0  0
   -4.3097   -0.0079    0.1647 C   0  0  0  0  0  4           0  0  0
   -5.0219   -2.5392   -1.4490 C   0  0  0  0  0  4           0  0  0
   -4.4078   -3.4227   -2.5306 C   0  0  0  0  0  4           0  0  0
   -3.0348   -2.9333   -2.9843 C   0  0  0  0  0  4           0  0  0
   -2.4208   -3.8132   -4.0631 C   0  0  0  0  0  4           0  0  0
  1 15  1  0     0  0
  2  6  2  0     0  0
  2  7  2  0     0  0
  2 12  1  0     0  0
  2 30  1  0     0  0
  3 30  1  0     0  0
  4 30  1  0     0  0
  5 30  1  0     0  0
  8 31  2  0     0  0
  9 32  1  0     0  0
  9 33  1  0     0  0
 10 16  1  0     0  0
 10 17  1  0     0  0
 10 34  1  0     0  0
 11 15  1  0     0  0
 11 16  2  0     0  0
 12 18  1  0     0  0
 13 19  1  0     0  0
 13 31  1  0     0  0
 14 20  1  0     0  0
 14 31  1  0     0  0
 15 17  2  0     0  0
 16 35  1  0     0  0
 17 32  1  0     0  0
 18 19  1  0     0  0
 18 22  2  0     0  0
 19 23  2  0     0  0
 20 24  2  0     0  0
 20 25  1  0     0  0
 21 26  2  0     0  0
 21 27  1  0     0  0
 21 34  1  0     0  0
 22 28  1  0     0  0
 23 29  1  0     0  0
 24 26  1  0     0  0
 25 27  2  0     0  0
 28 29  2  0     0  0
 35 36  1  0     0  0
 36 37  1  0     0  0
 37 38  1  0     0  0
M  END
> <standard_type>
pIC50

> <# Confs.>
25

> <canonical_smiles>
CCCCC1=NC(Cl)=C(COC)N1CC2=CC=C(NC(NC3=CC=CC=C3NS(C(F)(F)F)(=O)=O)=O)C=C2

> <standard_relation>
=

> <Publication_ID>
nan

> <predicted_activity_value>
5.0

> <actual_activity_value>
5.619788758288394

> <Compound>
16

> <standard_units>
nM

> hash
3731556818081296511

$$$$
16_
XXILIB    08252103513D 0   0.00000     0.00000

 38 40  0     1  0            999 V2000
   -6.0724   -4.3228    2.5421 Cl  0  0  0  0  0  1           0  0  0
    6.0732   -1.3866    1.5849 S   0  0  1  0  0  6           0  0  0
    8.5030   -0.7415    2.2353 F   0  0  0  0  0  1           0  0  0
    8.0364   -2.8662    2.3991 F   0  0  0  0  0  1           0  0  0
    8.3282   -1.9644    0.4345 F   0  0  0  0  0  1           0  0  0
    5.5935   -1.1824    2.9378 O   0  0  0  0  0  2           0  0  0
    5.4723   -2.3909    0.7274 O   0  0  0  0  0  2           0  0  0
    1.9427    0.0000   -2.2467 O   0  0  0  0  0  2           0  0  0
   -6.1838   -2.7334   -1.1007 O   0  0  0  0  0  2           0  0  0
   -4.7989   -0.9548    1.1476 N   0  0  0  0  0  3           0  0  0
   -5.4868   -1.7695    3.0918 N   0  0  0  0  0  3           0  0  0
    6.1057    0.1108    0.7291 N   0  0  0  0  0  3           0  0  0
    3.6054   -0.0007   -0.6241 N   0  0  0  0  0  3           0  0  0
    1.4083    0.0000    0.0000 N   0  0  0  0  0  3           0  0  0
   -5.5304   -2.7559    2.1396 C   0  0  0  0  0  4           0  0  0
   -5.0412   -0.6921    2.4807 C   0  0  0  0  0  4           0  0  0
   -5.0966   -2.2869    0.9099 C   0  0  0  0  0  4           0  0  0
    6.0337   -0.0022   -0.7037 C   0  0  0  0  0  4           0  0  0
    4.7981   -0.0016   -1.3730 C   0  0  0  0  0  4           0  0  0
    0.0000    0.0000    0.0000 C   0  0  0  0  0  4           0  0  0
   -2.8126   -0.0124    0.1073 C   0  0  0  0  0  4           0  0  0
    7.2300   -0.0147   -1.4306 C   0  0  0  0  0  4           0  0  0
    4.7817   -0.0261   -2.7742 C   0  0  0  0  0  4           0  0  0
   -0.6593    0.0000    1.2330 C   0  0  0  0  0  4           0  0  0
   -0.7494    0.0011   -1.1808 C   0  0  0  0  0  4           0  0  0
   -2.0550   -0.0051    1.2855 C   0  0  0  0  0  4           0  0  0
   -2.1462   -0.0007   -1.1249 C   0  0  0  0  0  4           0  0  0
    7.2001   -0.0419   -2.8238 C   0  0  0  0  0  4           0  0  0
    5.9788   -0.0465   -3.4935 C   0  0  0  0  0  4           0  0  0
    7.8018   -1.7515    1.6651 C   0  0  1  0  0  4           0  0  0
    2.2843    0.0000   -1.0635 C   0  0  0  0  0  4           0  0  0
   -4.9431   -2.9042   -0.4270 C   0  0  0  0  0  4           0  0  0
   -6.1525   -3.2933   -2.4073 C   0  0  0  0  0  4           0  0  0
   -4.3097   -0.0079    0.1647 C   0  0  0  0  0  4           0  0  0
   -4.8364    0.6258    3.1380 C   0  0  0  0  0  4           0  0  0
   -4.1270    0.4995    4.4827 C   0  0  0  0  0  4           0  0  0
   -3.9118    1.8475    5.1661 C   0  0  0  0  0  4           0  0  0
   -3.2044    1.7236    6.5074 C   0  0  0  0  0  4           0  0  0
  1 15  1  0     0  0
  2  6  2  0     0  0
  2  7  2  0     0  0
  2 12  1  0     0  0
  2 30  1  0     0  0
  3 30  1  0     0  0
  4 30  1  0     0  0
  5 30  1  0     0  0
  8 31  2  0     0  0
  9 32  1  0     0  0
  9 33  1  0     0  0
 10 16  1  0     0  0
 10 17  1  0     0  0
 10 34  1  0     0  0
 11 15  1  0     0  0
 11 16  2  0     0  0
 12 18  1  0     0  0
 13 19  1  0     0  0
 13 31  1  0     0  0
 14 20  1  0     0  0
 14 31  1  0     0  0
 15 17  2  0     0  0
 16 35  1  0     0  0
 17 32  1  0     0  0
 18 19  1  0     0  0
 18 22  2  0     0  0
 19 23  2  0     0  0
 20 24  2  0     0  0
 20 25  1  0     0  0
 21 26  2  0     0  0
 21 27  1  0     0  0
 21 34  1  0     0  0
 22 28  1  0     0  0
 23 29  1  0     0  0
 24 26  1  0     0  0
 25 27  2  0     0  0
 28 29  2  0     0  0
 35 36  1  0     0  0
 36 37  1  0     0  0
 37 38  1  0     0  0
M  END
> <standard_type>
pIC50

> <# Confs.>
25

> <canonical_smiles>
CCCCC1=NC(Cl)=C(COC)N1CC2=CC=C(NC(NC3=CC=CC=C3NS(C(F)(F)F)(=O)=O)=O)C=C2

> <standard_relation>
=

> <Publication_ID>
nan

> <predicted_activity_value>
5.0

> <actual_activity_value>
5.619788758288394

> <Compound>
16

> <standard_units>
nM

> hash
3731556818081296511

$$$$
16_
XXILIB    08252103513D 0   0.00000     0.00000

 38 40  0     1  0            999 V2000
   -6.2826   -1.4987   -4.4464 Cl  0  0  0  0  0  1           0  0  0
    6.0732   -1.3866    1.5849 S   0  0  1  0  0  6           0  0  0
    8.5030   -0.7415    2.2353 F   0  0  0  0  0  1           0  0  0
    8.0364   -2.8662    2.3991 F   0  0  0  0  0  1           0  0  0
    8.3282   -1.9644    0.4345 F   0  0  0  0  0  1           0  0  0
    5.5935   -1.1824    2.9378 O   0  0  0  0  0  2           0  0  0
    5.4723   -2.3909    0.7274 O   0  0  0  0  0  2           0  0  0
    1.9427    0.0000   -2.2467 O   0  0  0  0  0  2           0  0  0
   -6.1969   -2.8778   -0.6861 O   0  0  0  0  0  2           0  0  0
   -4.8849   -0.0169   -1.1661 N   0  0  0  0  0  3           0  0  0
   -5.7016    0.7324   -3.0866 N   0  0  0  0  0  3           0  0  0
    6.1057    0.1108    0.7291 N   0  0  0  0  0  3           0  0  0
    3.6054   -0.0007   -0.6241 N   0  0  0  0  0  3           0  0  0
    1.4083    0.0000    0.0000 N   0  0  0  0  0  3           0  0  0
   -5.7113   -0.6393   -3.0877 C   0  0  0  0  0  4           0  0  0
   -5.2048    1.0926   -1.9221 C   0  0  0  0  0  4           0  0  0
   -5.2168   -1.1464   -1.8967 C   0  0  0  0  0  4           0  0  0
    6.0337   -0.0022   -0.7037 C   0  0  0  0  0  4           0  0  0
    4.7981   -0.0016   -1.3730 C   0  0  0  0  0  4           0  0  0
    0.0000    0.0000    0.0000 C   0  0  0  0  0  4           0  0  0
   -2.8126   -0.0124    0.1073 C   0  0  0  0  0  4           0  0  0
    7.2300   -0.0147   -1.4306 C   0  0  0  0  0  4           0  0  0
    4.7817   -0.0261   -2.7742 C   0  0  0  0  0  4           0  0  0
   -0.6593    0.0000    1.2330 C   0  0  0  0  0  4           0  0  0
   -0.7494    0.0011   -1.1808 C   0  0  0  0  0  4           0  0  0
   -2.0550   -0.0051    1.2855 C   0  0  0  0  0  4           0  0  0
   -2.1462   -0.0007   -1.1249 C   0  0  0  0  0  4           0  0  0
    7.2001   -0.0419   -2.8238 C   0  0  0  0  0  4           0  0  0
    5.9788   -0.0465   -3.4935 C   0  0  0  0  0  4           0  0  0
    7.8018   -1.7515    1.6651 C   0  0  1  0  0  4           0  0  0
    2.2843    0.0000   -1.0635 C   0  0  0  0  0  4           0  0  0
   -5.0062   -2.5154   -1.3738 C   0  0  0  0  0  4           0  0  0
   -6.1080   -4.1862   -0.1369 C   0  0  0  0  0  4           0  0  0
   -4.3097   -0.0079    0.1647 C   0  0  0  0  0  4           0  0  0
   -5.0094    2.5014   -1.4884 C   0  0  0  0  0  4           0  0  0
   -6.2286    3.0586   -0.7600 C   0  0  0  0  0  4           0  0  0
   -7.4879    3.0490   -1.6229 C   0  0  0  0  0  4           0  0  0
   -7.3426    3.8792   -2.8896 C   0  0  0  0  0  4           0  0  0
  1 15  1  0     0  0
  2  6  2  0     0  0
  2  7  2  0     0  0
  2 12  1  0     0  0
  2 30  1  0     0  0
  3 30  1  0     0  0
  4 30  1  0     0  0
  5 30  1  0     0  0
  8 31  2  0     0  0
  9 32  1  0     0  0
  9 33  1  0     0  0
 10 16  1  0     0  0
 10 17  1  0     0  0
 10 34  1  0     0  0
 11 15  1  0     0  0
 11 16  2  0     0  0
 12 18  1  0     0  0
 13 19  1  0     0  0
 13 31  1  0     0  0
 14 20  1  0     0  0
 14 31  1  0     0  0
 15 17  2  0     0  0
 16 35  1  0     0  0
 17 32  1  0     0  0
 18 19  1  0     0  0
 18 22  2  0     0  0
 19 23  2  0     0  0
 20 24  2  0     0  0
 20 25  1  0     0  0
 21 26  2  0     0  0
 21 27  1  0     0  0
 21 34  1  0     0  0
 22 28  1  0     0  0
 23 29  1  0     0  0
 24 26  1  0     0  0
 25 27  2  0     0  0
 28 29  2  0     0  0
 35 36  1  0     0  0
 36 37  1  0     0  0
 37 38  1  0     0  0
M  END
> <standard_type>
pIC50

> <# Confs.>
25

> <canonical_smiles>
CCCCC1=NC(Cl)=C(COC)N1CC2=CC=C(NC(NC3=CC=CC=C3NS(C(F)(F)F)(=O)=O)=O)C=C2

> <standard_relation>
=

> <Publication_ID>
nan

> <predicted_activity_value>
5.0

> <actual_activity_value>
5.619788758288394

> <Compound>
16

> <standard_units>
nM

> hash
3731556818081296511

$$$$
16_
XXILIB    08252103513D 0   0.00000     0.00000

 38 40  0     1  0            999 V2000
   -6.3234    1.4206   -4.4485 Cl  0  0  0  0  0  1           0  0  0
    5.9109   -0.5425    2.0744 S   0  0  1  0  0  6           0  0  0
    8.4010   -1.1989    1.7409 F   0  0  0  0  0  1           0  0  0
    7.2582   -2.5368    3.0303 F   0  0  0  0  0  1           0  0  0
    6.9601   -2.5897    0.8701 F   0  0  0  0  0  1           0  0  0
    6.2216    0.2885    3.2211 O   0  0  0  0  0  2           0  0  0
    4.6438   -1.2440    1.9870 O   0  0  0  0  0  2           0  0  0
    1.9427    0.0000   -2.2467 O   0  0  0  0  0  2           0  0  0
   -6.1536    2.8736   -0.7513 O   0  0  0  0  0  2           0  0  0
   -4.8849   -0.0169   -1.1661 N   0  0  0  0  0  3           0  0  0
   -5.7202   -0.7920   -3.0682 N   0  0  0  0  0  3           0  0  0
    6.1445    0.3431    0.6126 N   0  0  0  0  0  3           0  0  0
    3.6054   -0.0007   -0.6241 N   0  0  0  0  0  3           0  0  0
    1.4083    0.0000   -0.0000 N   0  0  0  0  0  3           0  0  0
   -5.7211    0.5796   -3.0917 C   0  0  0  0  0  4           0  0  0
   -5.2108   -1.1365   -1.9044 C   0  0  0  0  0  4           0  0  0
   -5.1951    1.1026   -1.9213 C   0  0  0  0  0  4           0  0  0
    5.9978   -0.4232   -0.5966 C   0  0  0  0  0  4           0  0  0
    4.7518   -0.5451   -1.2347 C   0  0  0  0  0  4           0  0  0
    0.0000    0.0000    0.0000 C   0  0  0  0  0  4           0  0  0
   -2.8126   -0.0124    0.1073 C   0  0  0  0  0  4           0  0  0
    7.1469   -0.9677   -1.1822 C   0  0  0  0  0  4           0  0  0
    4.6752   -1.2284   -2.4559 C   0  0  0  0  0  4           0  0  0
   -0.6593    0.0000    1.2330 C   0  0  0  0  0  4           0  0  0
   -0.7494    0.0011   -1.1808 C   0  0  0  0  0  4           0  0  0
   -2.0550   -0.0051    1.2855 C   0  0  0  0  0  4           0  0  0
   -2.1462   -0.0007   -1.1249 C   0  0  0  0  0  4           0  0  0
    7.0568   -1.6475   -2.3956 C   0  0  0  0  0  4           0  0  0
    5.8240   -1.7764   -3.0310 C   0  0  0  0  0  4           0  0  0
    7.1818   -1.7627    1.9207 C   0  0  1  0  0  4           0  0  0
    2.2843    0.0000   -1.0635 C   0  0  0  0  0  4           0  0  0
   -4.9653    2.4785   -1.4253 C   0  0  0  0  0  4           0  0  0
   -6.0466    4.1914   -0.2284 C   0  0  0  0  0  4           0  0  0
   -4.3097   -0.0079    0.1647 C   0  0  0  0  0  4           0  0  0
   -5.0219   -2.5392   -1.4490 C   0  0  0  0  0  4           0  0  0
   -6.2431   -3.0791   -0.7110 C   0  0  0  0  0  4           0  0  0
   -7.5031   -3.0768   -1.5730 C   0  0  0  0  0  4           0  0  0
   -8.7222   -3.6149   -0.8388 C   0  0  0  0  0  4           0  0  0
  1 15  1  0     0  0
  2  6  2  0     0  0
  2  7  2  0     0  0
  2 12  1  0     0  0
  2 30  1  0     0  0
  3 30  1  0     0  0
  4 30  1  0     0  0
  5 30  1  0     0  0
  8 31  2  0     0  0
  9 32  1  0     0  0
  9 33  1  0     0  0
 10 16  1  0     0  0
 10 17  1  0     0  0
 10 34  1  0     0  0
 11 15  1  0     0  0
 11 16  2  0     0  0
 12 18  1  0     0  0
 13 19  1  0     0  0
 13 31  1  0     0  0
 14 20  1  0     0  0
 14 31  1  0     0  0
 15 17  2  0     0  0
 16 35  1  0     0  0
 17 32  1  0     0  0
 18 19  1  0     0  0
 18 22  2  0     0  0
 19 23  2  0     0  0
 20 24  2  0     0  0
 20 25  1  0     0  0
 21 26  2  0     0  0
 21 27  1  0     0  0
 21 34  1  0     0  0
 22 28  1  0     0  0
 23 29  1  0     0  0
 24 26  1  0     0  0
 25 27  2  0     0  0
 28 29  2  0     0  0
 35 36  1  0     0  0
 36 37  1  0     0  0
 37 38  1  0     0  0
M  END
> <standard_type>
pIC50

> <# Confs.>
25

> <canonical_smiles>
CCCCC1=NC(Cl)=C(COC)N1CC2=CC=C(NC(NC3=CC=CC=C3NS(C(F)(F)F)(=O)=O)=O)C=C2

> <standard_relation>
=

> <Publication_ID>
nan

> <predicted_activity_value>
5.0

> <actual_activity_value>
5.619788758288394

> <Compound>
16

> <standard_units>
nM

> hash
3731556818081296511

$$$$
16_
XXILIB    08252103513D 0   0.00000     0.00000

 38 40  0     1  0            999 V2000
   -6.2826   -1.4987   -4.4464 Cl  0  0  0  0  0  1           0  0  0
    5.9109   -0.5425    2.0744 S   0  0  1  0  0  6           0  0  0
    8.4010   -1.1989    1.7409 F   0  0  0  0  0  1           0  0  0
    7.2582   -2.5368    3.0303 F   0  0  0  0  0  1           0  0  0
    6.9601   -2.5897    0.8701 F   0  0  0  0  0  1           0  0  0
    6.2216    0.2885    3.2211 O   0  0  0  0  0  2           0  0  0
    4.6438   -1.2440    1.9870 O   0  0  0  0  0  2           0  0  0
    1.9427    0.0000   -2.2467 O   0  0  0  0  0  2           0  0  0
   -6.1969   -2.8778   -0.6861 O   0  0  0  0  0  2           0  0  0
   -4.8849   -0.0169   -1.1661 N   0  0  0  0  0  3           0  0  0
   -5.7016    0.7324   -3.0866 N   0  0  0  0  0  3           0  0  0
    6.1445    0.3431    0.6126 N   0  0  0  0  0  3           0  0  0
    3.6054   -0.0007   -0.6241 N   0  0  0  0  0  3           0  0  0
    1.4083    0.0000   -0.0000 N   0  0  0  0  0  3           0  0  0
   -5.7113   -0.6393   -3.0877 C   0  0  0  0  0  4           0  0  0
   -5.2048    1.0926   -1.9221 C   0  0  0  0  0  4           0  0  0
   -5.2168   -1.1464   -1.8967 C   0  0  0  0  0  4           0  0  0
    5.9978   -0.4232   -0.5966 C   0  0  0  0  0  4           0  0  0
    4.7518   -0.5451   -1.2347 C   0  0  0  0  0  4           0  0  0
    0.0000    0.0000    0.0000 C   0  0  0  0  0  4           0  0  0
   -2.8126   -0.0124    0.1073 C   0  0  0  0  0  4           0  0  0
    7.1469   -0.9677   -1.1822 C   0  0  0  0  0  4           0  0  0
    4.6752   -1.2284   -2.4559 C   0  0  0  0  0  4           0  0  0
   -0.6593    0.0000    1.2330 C   0  0  0  0  0  4           0  0  0
   -0.7494    0.0011   -1.1808 C   0  0  0  0  0  4           0  0  0
   -2.0550   -0.0051    1.2855 C   0  0  0  0  0  4           0  0  0
   -2.1462   -0.0007   -1.1249 C   0  0  0  0  0  4           0  0  0
    7.0568   -1.6475   -2.3956 C   0  0  0  0  0  4           0  0  0
    5.8240   -1.7764   -3.0310 C   0  0  0  0  0  4           0  0  0
    7.1818   -1.7627    1.9207 C   0  0  1  0  0  4           0  0  0
    2.2843    0.0000   -1.0635 C   0  0  0  0  0  4           0  0  0
   -5.0062   -2.5154   -1.3738 C   0  0  0  0  0  4           0  0  0
   -6.1080   -4.1862   -0.1369 C   0  0  0  0  0  4           0  0  0
   -4.3097   -0.0079    0.1647 C   0  0  0  0  0  4           0  0  0
   -5.0094    2.5014   -1.4884 C   0  0  0  0  0  4           0  0  0
   -5.4608    3.5023   -2.5476 C   0  0  0  0  0  4           0  0  0
   -5.2645    4.9523   -2.1121 C   0  0  0  0  0  4           0  0  0
   -5.7141    5.9521   -3.1671 C   0  0  0  0  0  4           0  0  0
  1 15  1  0     0  0
  2  6  2  0     0  0
  2  7  2  0     0  0
  2 12  1  0     0  0
  2 30  1  0     0  0
  3 30  1  0     0  0
  4 30  1  0     0  0
  5 30  1  0     0  0
  8 31  2  0     0  0
  9 32  1  0     0  0
  9 33  1  0     0  0
 10 16  1  0     0  0
 10 17  1  0     0  0
 10 34  1  0     0  0
 11 15  1  0     0  0
 11 16  2  0     0  0
 12 18  1  0     0  0
 13 19  1  0     0  0
 13 31  1  0     0  0
 14 20  1  0     0  0
 14 31  1  0     0  0
 15 17  2  0     0  0
 16 35  1  0     0  0
 17 32  1  0     0  0
 18 19  1  0     0  0
 18 22  2  0     0  0
 19 23  2  0     0  0
 20 24  2  0     0  0
 20 25  1  0     0  0
 21 26  2  0     0  0
 21 27  1  0     0  0
 21 34  1  0     0  0
 22 28  1  0     0  0
 23 29  1  0     0  0
 24 26  1  0     0  0
 25 27  2  0     0  0
 28 29  2  0     0  0
 35 36  1  0     0  0
 36 37  1  0     0  0
 37 38  1  0     0  0
M  END
> <standard_type>
pIC50

> <# Confs.>
25

> <canonical_smiles>
CCCCC1=NC(Cl)=C(COC)N1CC2=CC=C(NC(NC3=CC=CC=C3NS(C(F)(F)F)(=O)=O)=O)C=C2

> <standard_relation>
=

> <Publication_ID>
nan

> <predicted_activity_value>
5.0

> <actual_activity_value>
5.619788758288394

> <Compound>
16

> <standard_units>
nM

> hash
3731556818081296511

$$$$
16_
XXILIB    08252103513D 0   0.00000     0.00000

 38 40  0     1  0            999 V2000
   -6.0724   -4.3228    2.5421 Cl  0  0  0  0  0  1           0  0  0
    6.0732   -1.3866    1.5849 S   0  0  1  0  0  6           0  0  0
    8.6205   -1.4039    1.0809 F   0  0  0  0  0  1           0  0  0
    7.7556   -3.3546    1.5339 F   0  0  0  0  0  1           0  0  0
    7.3837   -2.4226   -0.4029 F   0  0  0  0  0  1           0  0  0
    6.2944   -1.1619    3.0001 O   0  0  0  0  0  2           0  0  0
    4.9303   -2.1524    1.1241 O   0  0  0  0  0  2           0  0  0
    1.9427    0.0000   -2.2467 O   0  0  0  0  0  2           0  0  0
   -6.1838   -2.7334   -1.1007 O   0  0  0  0  0  2           0  0  0
   -4.7989   -0.9548    1.1476 N   0  0  0  0  0  3           0  0  0
   -5.4868   -1.7695    3.0918 N   0  0  0  0  0  3           0  0  0
    6.1057    0.1108    0.7291 N   0  0  0  0  0  3           0  0  0
    3.6054   -0.0007   -0.6241 N   0  0  0  0  0  3           0  0  0
    1.4083    0.0000    0.0000 N   0  0  0  0  0  3           0  0  0
   -5.5304   -2.7559    2.1396 C   0  0  0  0  0  4           0  0  0
   -5.0412   -0.6921    2.4807 C   0  0  0  0  0  4           0  0  0
   -5.0966   -2.2869    0.9099 C   0  0  0  0  0  4           0  0  0
    6.0337   -0.0022   -0.7037 C   0  0  0  0  0  4           0  0  0
    4.7981   -0.0016   -1.3730 C   0  0  0  0  0  4           0  0  0
    0.0000    0.0000    0.0000 C   0  0  0  0  0  4           0  0  0
   -2.8126   -0.0124    0.1073 C   0  0  0  0  0  4           0  0  0
    7.2300   -0.0147   -1.4306 C   0  0  0  0  0  4           0  0  0
    4.7817   -0.0261   -2.7742 C   0  0  0  0  0  4           0  0  0
   -0.6593    0.0000    1.2330 C   0  0  0  0  0  4           0  0  0
   -0.7494    0.0011   -1.1808 C   0  0  0  0  0  4           0  0  0
   -2.0550   -0.0051    1.2855 C   0  0  0  0  0  4           0  0  0
   -2.1462   -0.0007   -1.1249 C   0  0  0  0  0  4           0  0  0
    7.2001   -0.0419   -2.8238 C   0  0  0  0  0  4           0  0  0
    5.9788   -0.0465   -3.4935 C   0  0  0  0  0  4           0  0  0
    7.5137   -2.1698    0.9223 C   0  0  1  0  0  4           0  0  0
    2.2843    0.0000   -1.0635 C   0  0  0  0  0  4           0  0  0
   -4.9431   -2.9042   -0.4270 C   0  0  0  0  0  4           0  0  0
   -6.1525   -3.2933   -2.4073 C   0  0  0  0  0  4           0  0  0
   -4.3097   -0.0079    0.1647 C   0  0  0  0  0  4           0  0  0
   -4.8364    0.6258    3.1380 C   0  0  0  0  0  4           0  0  0
   -6.0042    1.0117    4.0406 C   0  0  0  0  0  4           0  0  0
   -7.3267    1.1132    3.2848 C   0  0  0  0  0  4           0  0  0
   -7.2948    2.1538    2.1753 C   0  0  0  0  0  4           0  0  0
  1 15  1  0     0  0
  2  6  2  0     0  0
  2  7  2  0     0  0
  2 12  1  0     0  0
  2 30  1  0     0  0
  3 30  1  0     0  0
  4 30  1  0     0  0
  5 30  1  0     0  0
  8 31  2  0     0  0
  9 32  1  0     0  0
  9 33  1  0     0  0
 10 16  1  0     0  0
 10 17  1  0     0  0
 10 34  1  0     0  0
 11 15  1  0     0  0
 11 16  2  0     0  0
 12 18  1  0     0  0
 13 19  1  0     0  0
 13 31  1  0     0  0
 14 20  1  0     0  0
 14 31  1  0     0  0
 15 17  2  0     0  0
 16 35  1  0     0  0
 17 32  1  0     0  0
 18 19  1  0     0  0
 18 22  2  0     0  0
 19 23  2  0     0  0
 20 24  2  0     0  0
 20 25  1  0     0  0
 21 26  2  0     0  0
 21 27  1  0     0  0
 21 34  1  0     0  0
 22 28  1  0     0  0
 23 29  1  0     0  0
 24 26  1  0     0  0
 25 27  2  0     0  0
 28 29  2  0     0  0
 35 36  1  0     0  0
 36 37  1  0     0  0
 37 38  1  0     0  0
M  END
> <standard_type>
pIC50

> <# Confs.>
25

> <canonical_smiles>
CCCCC1=NC(Cl)=C(COC)N1CC2=CC=C(NC(NC3=CC=CC=C3NS(C(F)(F)F)(=O)=O)=O)C=C2

> <standard_relation>
=

> <Publication_ID>
nan

> <predicted_activity_value>
5.0

> <actual_activity_value>
5.619788758288394

> <Compound>
16

> <standard_units>
nM

> hash
3731556818081296511

$$$$
16_
XXILIB    08252103513D 0   0.00000     0.00000

 38 40  0     1  0            999 V2000
   -6.2826   -1.4987   -4.4464 Cl  0  0  0  0  0  1           0  0  0
    5.9109   -0.5425    2.0744 S   0  0  1  0  0  6           0  0  0
    8.4010   -1.1989    1.7409 F   0  0  0  0  0  1           0  0  0
    7.2582   -2.5368    3.0303 F   0  0  0  0  0  1           0  0  0
    6.9601   -2.5897    0.8701 F   0  0  0  0  0  1           0  0  0
    6.2216    0.2885    3.2211 O   0  0  0  0  0  2           0  0  0
    4.6438   -1.2440    1.9870 O   0  0  0  0  0  2           0  0  0
    1.9427    0.0000   -2.2467 O   0  0  0  0  0  2           0  0  0
   -6.1969   -2.8778   -0.6861 O   0  0  0  0  0  2           0  0  0
   -4.8849   -0.0169   -1.1661 N   0  0  0  0  0  3           0  0  0
   -5.7016    0.7324   -3.0866 N   0  0  0  0  0  3           0  0  0
    6.1445    0.3431    0.6126 N   0  0  0  0  0  3           0  0  0
    3.6054   -0.0007   -0.6241 N   0  0  0  0  0  3           0  0  0
    1.4083    0.0000   -0.0000 N   0  0  0  0  0  3           0  0  0
   -5.7113   -0.6393   -3.0877 C   0  0  0  0  0  4           0  0  0
   -5.2048    1.0926   -1.9221 C   0  0  0  0  0  4           0  0  0
   -5.2168   -1.1464   -1.8967 C   0  0  0  0  0  4           0  0  0
    5.9978   -0.4232   -0.5966 C   0  0  0  0  0  4           0  0  0
    4.7518   -0.5451   -1.2347 C   0  0  0  0  0  4           0  0  0
    0.0000    0.0000    0.0000 C   0  0  0  0  0  4           0  0  0
   -2.8126   -0.0124    0.1073 C   0  0  0  0  0  4           0  0  0
    7.1469   -0.9677   -1.1822 C   0  0  0  0  0  4           0  0  0
    4.6752   -1.2284   -2.4559 C   0  0  0  0  0  4           0  0  0
   -0.6593    0.0000    1.2330 C   0  0  0  0  0  4           0  0  0
   -0.7494    0.0011   -1.1808 C   0  0  0  0  0  4           0  0  0
   -2.0550   -0.0051    1.2855 C   0  0  0  0  0  4           0  0  0
   -2.1462   -0.0007   -1.1249 C   0  0  0  0  0  4           0  0  0
    7.0568   -1.6475   -2.3956 C   0  0  0  0  0  4           0  0  0
    5.8240   -1.7764   -3.0310 C   0  0  0  0  0  4           0  0  0
    7.1818   -1.7627    1.9207 C   0  0  1  0  0  4           0  0  0
    2.2843    0.0000   -1.0635 C   0  0  0  0  0  4           0  0  0
   -5.0062   -2.5154   -1.3738 C   0  0  0  0  0  4           0  0  0
   -6.1080   -4.1862   -0.1369 C   0  0  0  0  0  4           0  0  0
   -4.3097   -0.0079    0.1647 C   0  0  0  0  0  4           0  0  0
   -5.0094    2.5014   -1.4884 C   0  0  0  0  0  4           0  0  0
   -6.2286    3.0586   -0.7600 C   0  0  0  0  0  4           0  0  0
   -7.4879    3.0490   -1.6229 C   0  0  0  0  0  4           0  0  0
   -8.7050    3.6043   -0.8982 C   0  0  0  0  0  4           0  0  0
  1 15  1  0     0  0
  2  6  2  0     0  0
  2  7  2  0     0  0
  2 12  1  0     0  0
  2 30  1  0     0  0
  3 30  1  0     0  0
  4 30  1  0     0  0
  5 30  1  0     0  0
  8 31  2  0     0  0
  9 32  1  0     0  0
  9 33  1  0     0  0
 10 16  1  0     0  0
 10 17  1  0     0  0
 10 34  1  0     0  0
 11 15  1  0     0  0
 11 16  2  0     0  0
 12 18  1  0     0  0
 13 19  1  0     0  0
 13 31  1  0     0  0
 14 20  1  0     0  0
 14 31  1  0     0  0
 15 17  2  0     0  0
 16 35  1  0     0  0
 17 32  1  0     0  0
 18 19  1  0     0  0
 18 22  2  0     0  0
 19 23  2  0     0  0
 20 24  2  0     0  0
 20 25  1  0     0  0
 21 26  2  0     0  0
 21 27  1  0     0  0
 21 34  1  0     0  0
 22 28  1  0     0  0
 23 29  1  0     0  0
 24 26  1  0     0  0
 25 27  2  0     0  0
 28 29  2  0     0  0
 35 36  1  0     0  0
 36 37  1  0     0  0
 37 38  1  0     0  0
M  END
> <standard_type>
pIC50

> <# Confs.>
25

> <canonical_smiles>
CCCCC1=NC(Cl)=C(COC)N1CC2=CC=C(NC(NC3=CC=CC=C3NS(C(F)(F)F)(=O)=O)=O)C=C2

> <standard_relation>
=

> <Publication_ID>
nan

> <predicted_activity_value>
5.0

> <actual_activity_value>
5.619788758288394

> <Compound>
16

> <standard_units>
nM

> hash
3731556818081296511

$$$$
16_
XXILIB    08252103513D 0   0.00000     0.00000

 38 40  0     1  0            999 V2000
   -6.0724   -4.3228    2.5421 Cl  0  0  0  0  0  1           0  0  0
    5.9109   -0.5425    2.0744 S   0  0  1  0  0  6           0  0  0
    8.4010   -1.1989    1.7409 F   0  0  0  0  0  1           0  0  0
    7.2582   -2.5368    3.0303 F   0  0  0  0  0  1           0  0  0
    6.9601   -2.5897    0.8701 F   0  0  0  0  0  1           0  0  0
    6.2216    0.2885    3.2211 O   0  0  0  0  0  2           0  0  0
    4.6438   -1.2440    1.9870 O   0  0  0  0  0  2           0  0  0
    1.9427    0.0000   -2.2467 O   0  0  0  0  0  2           0  0  0
   -6.1838   -2.7334   -1.1007 O   0  0  0  0  0  2           0  0  0
   -4.7989   -0.9548    1.1476 N   0  0  0  0  0  3           0  0  0
   -5.4868   -1.7695    3.0918 N   0  0  0  0  0  3           0  0  0
    6.1445    0.3431    0.6126 N   0  0  0  0  0  3           0  0  0
    3.6054   -0.0007   -0.6241 N   0  0  0  0  0  3           0  0  0
    1.4083    0.0000   -0.0000 N   0  0  0  0  0  3           0  0  0
   -5.5304   -2.7559    2.1396 C   0  0  0  0  0  4           0  0  0
   -5.0412   -0.6921    2.4807 C   0  0  0  0  0  4           0  0  0
   -5.0966   -2.2869    0.9099 C   0  0  0  0  0  4           0  0  0
    5.9978   -0.4232   -0.5966 C   0  0  0  0  0  4           0  0  0
    4.7518   -0.5451   -1.2347 C   0  0  0  0  0  4           0  0  0
    0.0000    0.0000    0.0000 C   0  0  0  0  0  4           0  0  0
   -2.8126   -0.0124    0.1073 C   0  0  0  0  0  4           0  0  0
    7.1469   -0.9677   -1.1822 C   0  0  0  0  0  4           0  0  0
    4.6752   -1.2284   -2.4559 C   0  0  0  0  0  4           0  0  0
   -0.6593    0.0000    1.2330 C   0  0  0  0  0  4           0  0  0
   -0.7494    0.0011   -1.1808 C   0  0  0  0  0  4           0  0  0
   -2.0550   -0.0051    1.2855 C   0  0  0  0  0  4           0  0  0
   -2.1462   -0.0007   -1.1249 C   0  0  0  0  0  4           0  0  0
    7.0568   -1.6475   -2.3956 C   0  0  0  0  0  4           0  0  0
    5.8240   -1.7764   -3.0310 C   0  0  0  0  0  4           0  0  0
    7.1818   -1.7627    1.9207 C   0  0  1  0  0  4           0  0  0
    2.2843    0.0000   -1.0635 C   0  0  0  0  0  4           0  0  0
   -4.9431   -2.9042   -0.4270 C   0  0  0  0  0  4           0  0  0
   -6.1525   -3.2933   -2.4073 C   0  0  0  0  0  4           0  0  0
   -4.3097   -0.0079    0.1647 C   0  0  0  0  0  4           0  0  0
   -4.8364    0.6258    3.1380 C   0  0  0  0  0  4           0  0  0
   -6.0042    1.0117    4.0406 C   0  0  0  0  0  4           0  0  0
   -5.8039    2.3637    4.7205 C   0  0  0  0  0  4           0  0  0
   -6.9676    2.7503    5.6212 C   0  0  0  0  0  4           0  0  0
  1 15  1  0     0  0
  2  6  2  0     0  0
  2  7  2  0     0  0
  2 12  1  0     0  0
  2 30  1  0     0  0
  3 30  1  0     0  0
  4 30  1  0     0  0
  5 30  1  0     0  0
  8 31  2  0     0  0
  9 32  1  0     0  0
  9 33  1  0     0  0
 10 16  1  0     0  0
 10 17  1  0     0  0
 10 34  1  0     0  0
 11 15  1  0     0  0
 11 16  2  0     0  0
 12 18  1  0     0  0
 13 19  1  0     0  0
 13 31  1  0     0  0
 14 20  1  0     0  0
 14 31  1  0     0  0
 15 17  2  0     0  0
 16 35  1  0     0  0
 17 32  1  0     0  0
 18 19  1  0     0  0
 18 22  2  0     0  0
 19 23  2  0     0  0
 20 24  2  0     0  0
 20 25  1  0     0  0
 21 26  2  0     0  0
 21 27  1  0     0  0
 21 34  1  0     0  0
 22 28  1  0     0  0
 23 29  1  0     0  0
 24 26  1  0     0  0
 25 27  2  0     0  0
 28 29  2  0     0  0
 35 36  1  0     0  0
 36 37  1  0     0  0
 37 38  1  0     0  0
M  END
> <standard_type>
pIC50

> <# Confs.>
25

> <canonical_smiles>
CCCCC1=NC(Cl)=C(COC)N1CC2=CC=C(NC(NC3=CC=CC=C3NS(C(F)(F)F)(=O)=O)=O)C=C2

> <standard_relation>
=

> <Publication_ID>
nan

> <predicted_activity_value>
5.0

> <actual_activity_value>
5.619788758288394

> <Compound>
16

> <standard_units>
nM

> hash
3731556818081296511

$$$$
16_
XXILIB    08252103513D 0   0.00000     0.00000

 38 40  0     1  0            999 V2000
   -6.1981   -4.3721   -2.0182 Cl  0  0  0  0  0  1           0  0  0
    6.0732   -1.3866    1.5849 S   0  0  1  0  0  6           0  0  0
    8.6205   -1.4039    1.0809 F   0  0  0  0  0  1           0  0  0
    7.7556   -3.3546    1.5339 F   0  0  0  0  0  1           0  0  0
    7.3837   -2.4226   -0.4029 F   0  0  0  0  0  1           0  0  0
    6.2944   -1.1619    3.0001 O   0  0  0  0  0  2           0  0  0
    4.9303   -2.1524    1.1241 O   0  0  0  0  0  2           0  0  0
    1.9427    0.0000   -2.2467 O   0  0  0  0  0  2           0  0  0
   -6.1081   -2.6879    1.6156 O   0  0  0  0  0  2           0  0  0
   -4.8722   -0.9697   -0.7629 N   0  0  0  0  0  3           0  0  0
   -5.6921   -1.8184   -2.6402 N   0  0  0  0  0  3           0  0  0
    6.1057    0.1108    0.7291 N   0  0  0  0  0  3           0  0  0
    3.6054   -0.0007   -0.6241 N   0  0  0  0  0  3           0  0  0
    1.4083    0.0000    0.0000 N   0  0  0  0  0  3           0  0  0
   -5.6634   -2.7894   -1.6717 C   0  0  0  0  0  4           0  0  0
   -5.2162   -0.7278   -2.0774 C   0  0  0  0  0  4           0  0  0
   -5.1657   -2.2934   -0.4773 C   0  0  0  0  0  4           0  0  0
    6.0337   -0.0022   -0.7037 C   0  0  0  0  0  4           0  0  0
    4.7981   -0.0016   -1.3730 C   0  0  0  0  0  4           0  0  0
    0.0000    0.0000    0.0000 C   0  0  0  0  0  4           0  0  0
   -2.8126   -0.0124    0.1073 C   0  0  0  0  0  4           0  0  0
    7.2300   -0.0147   -1.4306 C   0  0  0  0  0  4           0  0  0
    4.7817   -0.0261   -2.7742 C   0  0  0  0  0  4           0  0  0
   -0.6593    0.0000    1.2330 C   0  0  0  0  0  4           0  0  0
   -0.7494    0.0011   -1.1808 C   0  0  0  0  0  4           0  0  0
   -2.0550   -0.0051    1.2855 C   0  0  0  0  0  4           0  0  0
   -2.1462   -0.0007   -1.1249 C   0  0  0  0  0  4           0  0  0
    7.2001   -0.0419   -2.8238 C   0  0  0  0  0  4           0  0  0
    5.9788   -0.0465   -3.4935 C   0  0  0  0  0  4           0  0  0
    7.5137   -2.1698    0.9223 C   0  0  1  0  0  4           0  0  0
    2.2843    0.0000   -1.0635 C   0  0  0  0  0  4           0  0  0
   -4.9217   -2.8865    0.8571 C   0  0  0  0  0  4           0  0  0
   -5.9876   -3.2227    2.9274 C   0  0  0  0  0  4           0  0  0
   -4.3097   -0.0079    0.1647 C   0  0  0  0  0  4           0  0  0
   -5.0643    0.5799   -2.7685 C   0  0  0  0  0  4           0  0  0
   -4.4596    0.4332   -4.1615 C   0  0  0  0  0  4           0  0  0
   -4.2993    1.7705   -4.8800 C   0  0  0  0  0  4           0  0  0
   -3.6964    1.6262   -6.2694 C   0  0  0  0  0  4           0  0  0
  1 15  1  0     0  0
  2  6  2  0     0  0
  2  7  2  0     0  0
  2 12  1  0     0  0
  2 30  1  0     0  0
  3 30  1  0     0  0
  4 30  1  0     0  0
  5 30  1  0     0  0
  8 31  2  0     0  0
  9 32  1  0     0  0
  9 33  1  0     0  0
 10 16  1  0     0  0
 10 17  1  0     0  0
 10 34  1  0     0  0
 11 15  1  0     0  0
 11 16  2  0     0  0
 12 18  1  0     0  0
 13 19  1  0     0  0
 13 31  1  0     0  0
 14 20  1  0     0  0
 14 31  1  0     0  0
 15 17  2  0     0  0
 16 35  1  0     0  0
 17 32  1  0     0  0
 18 19  1  0     0  0
 18 22  2  0     0  0
 19 23  2  0     0  0
 20 24  2  0     0  0
 20 25  1  0     0  0
 21 26  2  0     0  0
 21 27  1  0     0  0
 21 34  1  0     0  0
 22 28  1  0     0  0
 23 29  1  0     0  0
 24 26  1  0     0  0
 25 27  2  0     0  0
 28 29  2  0     0  0
 35 36  1  0     0  0
 36 37  1  0     0  0
 37 38  1  0     0  0
M  END
> <standard_type>
pIC50

> <# Confs.>
25

> <canonical_smiles>
CCCCC1=NC(Cl)=C(COC)N1CC2=CC=C(NC(NC3=CC=CC=C3NS(C(F)(F)F)(=O)=O)=O)C=C2

> <standard_relation>
=

> <Publication_ID>
nan

> <predicted_activity_value>
5.0

> <actual_activity_value>
5.619788758288394

> <Compound>
16

> <standard_units>
nM

> hash
3731556818081296511

$$$$
1_
XXILIB    08252103443D 0   0.00000     0.00000

 33 36  0     1  0            999 V2000
    5.8939   -0.5200   -0.0538 F   0  0  0  0  0  1           0  0  0
    4.9300   -2.1320   -1.1591 F   0  0  0  0  0  1           0  0  0
    4.9626   -2.1684    1.0204 F   0  0  0  0  0  1           0  0  0
    1.6464   -2.9458    1.3070 O   0  0  0  0  0  2           0  0  0
    1.9870    1.5757    5.6637 N   0  0  0  0  0  3           0  0  0
    1.6874    2.4245    6.6374 N   0  0  0  0  0  3           0  0  0
    0.8918    0.8192    5.5129 N   0  0  0  0  0  3           0  0  0
    0.4109    2.2116    7.1040 N   0  0  0  0  0  3           0  0  0
    1.4520    0.0000    0.0000 N   0  0  0  0  0  3           0  0  0
    3.5404    0.7560   -0.0149 N   0  0  0  0  0  3           0  0  0
   -0.0753    1.2093    6.3986 C   0  0  0  0  0  4           0  0  0
    2.2712    1.1119    0.0000 C   0  0  0  0  0  4           0  0  0
    2.2606   -1.1178   -0.0260 C   0  0  0  0  0  4           0  0  0
    3.5494   -0.6156   -0.0328 C   0  0  0  0  0  4           0  0  0
   -1.3780    0.5977    6.5008 C   0  0  0  0  0  4           0  0  0
   -2.0524   -0.0018    5.4071 C   0  0  0  0  0  4           0  0  0
   -1.5376   -0.0008    4.0436 C   0  0  0  0  0  4           0  0  0
   -0.5420   -0.0000    1.3965 C   0  0  0  0  0  4           0  0  0
   -1.9906    0.5954    7.7696 C   0  0  0  0  0  4           0  0  0
   -3.3081   -0.6023    5.6429 C   0  0  0  0  0  4           0  0  0
   -1.2946    1.2044    3.3682 C   0  0  0  0  0  4           0  0  0
   -1.2694   -1.2056    3.3770 C   0  0  0  0  0  4           0  0  0
   -0.7999    1.2049    2.0610 C   0  0  0  0  0  4           0  0  0
   -0.7753   -1.2052    2.0697 C   0  0  0  0  0  4           0  0  0
   -3.2334   -0.0022    7.9727 C   0  0  0  0  0  4           0  0  0
   -3.8910   -0.6046    6.9097 C   0  0  0  0  0  4           0  0  0
    4.8218   -1.3519   -0.0544 C   0  0  1  0  0  4           0  0  0
    1.7741   -2.5139   -0.0411 C   0  0  0  0  0  4           0  0  0
    0.0000    0.0000    0.0000 C   0  0  0  0  0  4           0  0  0
    1.7905    2.5184    0.0161 C   0  0  0  0  0  4           0  0  0
    2.5369    3.3971   -0.9831 C   0  0  0  0  0  4           0  0  0
    2.0518    4.8454   -0.9760 C   0  0  0  0  0  4           0  0  0
    2.7934    5.7253   -1.9710 C   0  0  0  0  0  4           0  0  0
  1 27  1  0     0  0
  2 27  1  0     0  0
  3 27  1  0     0  0
  4 28  1  0     0  0
  5  6  2  0     0  0
  5  7  1  0     0  0
  6  8  1  0     0  0
  7 11  1  0     0  0
  8 11  2  0     0  0
  9 12  1  0     0  0
  9 13  1  0     0  0
  9 29  1  0     0  0
 10 12  2  0     0  0
 10 14  1  0     0  0
 11 15  1  0     0  0
 12 30  1  0     0  0
 13 14  2  0     0  0
 13 28  1  0     0  0
 14 27  1  0     0  0
 15 16  1  0     0  0
 15 19  2  0     0  0
 16 17  1  0     0  0
 16 20  2  0     0  0
 17 21  2  0     0  0
 17 22  1  0     0  0
 18 23  2  0     0  0
 18 24  1  0     0  0
 18 29  1  0     0  0
 19 25  1  0     0  0
 20 26  1  0     0  0
 21 23  1  0     0  0
 22 24  2  0     0  0
 25 26  2  0     0  0
 30 31  1  0     0  0
 31 32  1  0     0  0
 32 33  1  0     0  0
M  END
> <standard_type>
pIC50

> <# Confs.>
25

> <canonical_smiles>
OCC1=C(C(F)(F)F)N=C(CCCC)N1CC2=CC=C(C3=CC=CC=C3C4=NN=NN4)C=C2

> <standard_relation>
=

> <Publication_ID>
Krovat_2003

> <predicted_activity_value>
7.221848749616356

> <actual_activity_value>
7.920818753952375

> <Compound>
1

> <standard_units>
nM

> hash
1814020336607191165

$$$$
1_
XXILIB    08252103443D 0   0.00000     0.00000

 33 36  0     1  0            999 V2000
    5.8939   -0.5200   -0.0538 F   0  0  0  0  0  1           0  0  0
    4.9300   -2.1320   -1.1591 F   0  0  0  0  0  1           0  0  0
    4.9626   -2.1684    1.0204 F   0  0  0  0  0  1           0  0  0
    1.6464   -2.9458    1.3070 O   0  0  0  0  0  2           0  0  0
    1.9870    1.5757    5.6637 N   0  0  0  0  0  3           0  0  0
    1.6874    2.4245    6.6374 N   0  0  0  0  0  3           0  0  0
    0.8918    0.8192    5.5129 N   0  0  0  0  0  3           0  0  0
    0.4109    2.2116    7.1040 N   0  0  0  0  0  3           0  0  0
    1.4520    0.0000    0.0000 N   0  0  0  0  0  3           0  0  0
    3.5404    0.7560   -0.0149 N   0  0  0  0  0  3           0  0  0
   -0.0753    1.2093    6.3986 C   0  0  0  0  0  4           0  0  0
    2.2712    1.1119    0.0000 C   0  0  0  0  0  4           0  0  0
    2.2606   -1.1178   -0.0260 C   0  0  0  0  0  4           0  0  0
    3.5494   -0.6156   -0.0328 C   0  0  0  0  0  4           0  0  0
   -1.3780    0.5977    6.5008 C   0  0  0  0  0  4           0  0  0
   -2.0524   -0.0018    5.4071 C   0  0  0  0  0  4           0  0  0
   -1.5376   -0.0008    4.0436 C   0  0  0  0  0  4           0  0  0
   -0.5420   -0.0000    1.3965 C   0  0  0  0  0  4           0  0  0
   -1.9906    0.5954    7.7696 C   0  0  0  0  0  4           0  0  0
   -3.3081   -0.6023    5.6429 C   0  0  0  0  0  4           0  0  0
   -1.2946    1.2044    3.3682 C   0  0  0  0  0  4           0  0  0
   -1.2694   -1.2056    3.3770 C   0  0  0  0  0  4           0  0  0
   -0.7999    1.2049    2.0610 C   0  0  0  0  0  4           0  0  0
   -0.7753   -1.2052    2.0697 C   0  0  0  0  0  4           0  0  0
   -3.2334   -0.0022    7.9727 C   0  0  0  0  0  4           0  0  0
   -3.8910   -0.6046    6.9097 C   0  0  0  0  0  4           0  0  0
    4.8218   -1.3519   -0.0544 C   0  0  1  0  0  4           0  0  0
    1.7741   -2.5139   -0.0411 C   0  0  0  0  0  4           0  0  0
    0.0000    0.0000    0.0000 C   0  0  0  0  0  4           0  0  0
    1.7905    2.5184    0.0161 C   0  0  0  0  0  4           0  0  0
    2.5369    3.3971   -0.9831 C   0  0  0  0  0  4           0  0  0
    2.3891    2.9124   -2.4239 C   0  0  0  0  0  4           0  0  0
    3.1319    3.7859   -3.4237 C   0  0  0  0  0  4           0  0  0
  1 27  1  0     0  0
  2 27  1  0     0  0
  3 27  1  0     0  0
  4 28  1  0     0  0
  5  6  2  0     0  0
  5  7  1  0     0  0
  6  8  1  0     0  0
  7 11  1  0     0  0
  8 11  2  0     0  0
  9 12  1  0     0  0
  9 13  1  0     0  0
  9 29  1  0     0  0
 10 12  2  0     0  0
 10 14  1  0     0  0
 11 15  1  0     0  0
 12 30  1  0     0  0
 13 14  2  0     0  0
 13 28  1  0     0  0
 14 27  1  0     0  0
 15 16  1  0     0  0
 15 19  2  0     0  0
 16 17  1  0     0  0
 16 20  2  0     0  0
 17 21  2  0     0  0
 17 22  1  0     0  0
 18 23  2  0     0  0
 18 24  1  0     0  0
 18 29  1  0     0  0
 19 25  1  0     0  0
 20 26  1  0     0  0
 21 23  1  0     0  0
 22 24  2  0     0  0
 25 26  2  0     0  0
 30 31  1  0     0  0
 31 32  1  0     0  0
 32 33  1  0     0  0
M  END
> <standard_type>
pIC50

> <# Confs.>
25

> <canonical_smiles>
OCC1=C(C(F)(F)F)N=C(CCCC)N1CC2=CC=C(C3=CC=CC=C3C4=NN=NN4)C=C2

> <standard_relation>
=

> <Publication_ID>
Krovat_2003

> <predicted_activity_value>
7.221848749616356

> <actual_activity_value>
7.920818753952375

> <Compound>
1

> <standard_units>
nM

> hash
1814020336607191165

$$$$
1_
XXILIB    08252103443D 0   0.00000     0.00000

 33 36  0     1  0            999 V2000
    5.8939   -0.5200   -0.0538 F   0  0  0  0  0  1           0  0  0
    4.9300   -2.1320   -1.1591 F   0  0  0  0  0  1           0  0  0
    4.9626   -2.1684    1.0204 F   0  0  0  0  0  1           0  0  0
    1.6464   -2.9458    1.3070 O   0  0  0  0  0  2           0  0  0
    1.9870    1.5757    5.6637 N   0  0  0  0  0  3           0  0  0
    1.6874    2.4245    6.6374 N   0  0  0  0  0  3           0  0  0
    0.8918    0.8192    5.5129 N   0  0  0  0  0  3           0  0  0
    0.4109    2.2116    7.1040 N   0  0  0  0  0  3           0  0  0
    1.4520    0.0000    0.0000 N   0  0  0  0  0  3           0  0  0
    3.5404    0.7560   -0.0149 N   0  0  0  0  0  3           0  0  0
   -0.0753    1.2093    6.3986 C   0  0  0  0  0  4           0  0  0
    2.2712    1.1119    0.0000 C   0  0  0  0  0  4           0  0  0
    2.2606   -1.1178   -0.0260 C   0  0  0  0  0  4           0  0  0
    3.5494   -0.6156   -0.0328 C   0  0  0  0  0  4           0  0  0
   -1.3780    0.5977    6.5008 C   0  0  0  0  0  4           0  0  0
   -2.0524   -0.0018    5.4071 C   0  0  0  0  0  4           0  0  0
   -1.5376   -0.0008    4.0436 C   0  0  0  0  0  4           0  0  0
   -0.5420   -0.0000    1.3965 C   0  0  0  0  0  4           0  0  0
   -1.9906    0.5954    7.7696 C   0  0  0  0  0  4           0  0  0
   -3.3081   -0.6023    5.6429 C   0  0  0  0  0  4           0  0  0
   -1.2946    1.2044    3.3682 C   0  0  0  0  0  4           0  0  0
   -1.2694   -1.2056    3.3770 C   0  0  0  0  0  4           0  0  0
   -0.7999    1.2049    2.0610 C   0  0  0  0  0  4           0  0  0
   -0.7753   -1.2052    2.0697 C   0  0  0  0  0  4           0  0  0
   -3.2334   -0.0022    7.9727 C   0  0  0  0  0  4           0  0  0
   -3.8910   -0.6046    6.9097 C   0  0  0  0  0  4           0  0  0
    4.8218   -1.3519   -0.0544 C   0  0  1  0  0  4           0  0  0
    1.7741   -2.5139   -0.0411 C   0  0  0  0  0  4           0  0  0
    0.0000    0.0000    0.0000 C   0  0  0  0  0  4           0  0  0
    1.7905    2.5184    0.0161 C   0  0  0  0  0  4           0  0  0
    2.5581    3.3815    1.0129 C   0  0  0  0  0  4           0  0  0
    2.0732    4.8296    1.0388 C   0  0  0  0  0  4           0  0  0
    2.8360    5.6939    2.0315 C   0  0  0  0  0  4           0  0  0
  1 27  1  0     0  0
  2 27  1  0     0  0
  3 27  1  0     0  0
  4 28  1  0     0  0
  5  6  2  0     0  0
  5  7  1  0     0  0
  6  8  1  0     0  0
  7 11  1  0     0  0
  8 11  2  0     0  0
  9 12  1  0     0  0
  9 13  1  0     0  0
  9 29  1  0     0  0
 10 12  2  0     0  0
 10 14  1  0     0  0
 11 15  1  0     0  0
 12 30  1  0     0  0
 13 14  2  0     0  0
 13 28  1  0     0  0
 14 27  1  0     0  0
 15 16  1  0     0  0
 15 19  2  0     0  0
 16 17  1  0     0  0
 16 20  2  0     0  0
 17 21  2  0     0  0
 17 22  1  0     0  0
 18 23  2  0     0  0
 18 24  1  0     0  0
 18 29  1  0     0  0
 19 25  1  0     0  0
 20 26  1  0     0  0
 21 23  1  0     0  0
 22 24  2  0     0  0
 25 26  2  0     0  0
 30 31  1  0     0  0
 31 32  1  0     0  0
 32 33  1  0     0  0
M  END
> <standard_type>
pIC50

> <# Confs.>
25

> <canonical_smiles>
OCC1=C(C(F)(F)F)N=C(CCCC)N1CC2=CC=C(C3=CC=CC=C3C4=NN=NN4)C=C2

> <standard_relation>
=

> <Publication_ID>
Krovat_2003

> <predicted_activity_value>
7.221848749616356

> <actual_activity_value>
7.920818753952375

> <Compound>
1

> <standard_units>
nM

> hash
1814020336607191165

$$$$
1_
XXILIB    08252103443D 0   0.00000     0.00000

 33 36  0     1  0            999 V2000
    5.8939    0.5200    0.0538 F   0  0  0  0  0  1           0  0  0
    4.9300    2.1320    1.1591 F   0  0  0  0  0  1           0  0  0
    4.9626    2.1684   -1.0204 F   0  0  0  0  0  1           0  0  0
    0.7385    2.6253   -0.9261 O   0  0  0  0  0  2           0  0  0
    1.9870    1.5757    5.6637 N   0  0  0  0  0  3           0  0  0
    1.6874    2.4245    6.6374 N   0  0  0  0  0  3           0  0  0
    0.8918    0.8192    5.5129 N   0  0  0  0  0  3           0  0  0
    0.4109    2.2116    7.1040 N   0  0  0  0  0  3           0  0  0
    1.4520   -0.0000    0.0000 N   0  0  0  0  0  3           0  0  0
    3.5404   -0.7560    0.0149 N   0  0  0  0  0  3           0  0  0
   -0.0753    1.2093    6.3986 C   0  0  0  0  0  4           0  0  0
    2.2712   -1.1119    0.0000 C   0  0  0  0  0  4           0  0  0
    2.2606    1.1178    0.0260 C   0  0  0  0  0  4           0  0  0
    3.5494    0.6156    0.0328 C   0  0  0  0  0  4           0  0  0
   -1.3780    0.5977    6.5008 C   0  0  0  0  0  4           0  0  0
   -2.0524   -0.0018    5.4071 C   0  0  0  0  0  4           0  0  0
   -1.5376   -0.0008    4.0436 C   0  0  0  0  0  4           0  0  0
   -0.5420   -0.0000    1.3965 C   0  0  0  0  0  4           0  0  0
   -1.9906    0.5954    7.7696 C   0  0  0  0  0  4           0  0  0
   -3.3081   -0.6023    5.6429 C   0  0  0  0  0  4           0  0  0
   -1.2946    1.2044    3.3682 C   0  0  0  0  0  4           0  0  0
   -1.2694   -1.2056    3.3770 C   0  0  0  0  0  4           0  0  0
   -0.7999    1.2049    2.0610 C   0  0  0  0  0  4           0  0  0
   -0.7753   -1.2052    2.0697 C   0  0  0  0  0  4           0  0  0
   -3.2334   -0.0022    7.9727 C   0  0  0  0  0  4           0  0  0
   -3.8910   -0.6046    6.9097 C   0  0  0  0  0  4           0  0  0
    4.8218    1.3519    0.0544 C   0  0  1  0  0  4           0  0  0
    1.7741    2.5139    0.0411 C   0  0  0  0  0  4           0  0  0
    0.0000    0.0000    0.0000 C   0  0  0  0  0  4           0  0  0
    1.7905   -2.5184   -0.0161 C   0  0  0  0  0  4           0  0  0
    2.5581   -3.3815   -1.0129 C   0  0  0  0  0  4           0  0  0
    2.0732   -4.8296   -1.0388 C   0  0  0  0  0  4           0  0  0
    2.8360   -5.6939   -2.0315 C   0  0  0  0  0  4           0  0  0
  1 27  1  0     0  0
  2 27  1  0     0  0
  3 27  1  0     0  0
  4 28  1  0     0  0
  5  6  2  0     0  0
  5  7  1  0     0  0
  6  8  1  0     0  0
  7 11  1  0     0  0
  8 11  2  0     0  0
  9 12  1  0     0  0
  9 13  1  0     0  0
  9 29  1  0     0  0
 10 12  2  0     0  0
 10 14  1  0     0  0
 11 15  1  0     0  0
 12 30  1  0     0  0
 13 14  2  0     0  0
 13 28  1  0     0  0
 14 27  1  0     0  0
 15 16  1  0     0  0
 15 19  2  0     0  0
 16 17  1  0     0  0
 16 20  2  0     0  0
 17 21  2  0     0  0
 17 22  1  0     0  0
 18 23  2  0     0  0
 18 24  1  0     0  0
 18 29  1  0     0  0
 19 25  1  0     0  0
 20 26  1  0     0  0
 21 23  1  0     0  0
 22 24  2  0     0  0
 25 26  2  0     0  0
 30 31  1  0     0  0
 31 32  1  0     0  0
 32 33  1  0     0  0
M  END
> <standard_type>
pIC50

> <# Confs.>
25

> <canonical_smiles>
OCC1=C(C(F)(F)F)N=C(CCCC)N1CC2=CC=C(C3=CC=CC=C3C4=NN=NN4)C=C2

> <standard_relation>
=

> <Publication_ID>
Krovat_2003

> <predicted_activity_value>
7.221848749616356

> <actual_activity_value>
7.920818753952375

> <Compound>
1

> <standard_units>
nM

> hash
1814020336607191165

$$$$
1_
XXILIB    08252103443D 0   0.00000     0.00000

 33 36  0     1  0            999 V2000
    5.8939   -0.5200   -0.0538 F   0  0  0  0  0  1           0  0  0
    4.9300   -2.1320   -1.1591 F   0  0  0  0  0  1           0  0  0
    4.9626   -2.1684    1.0204 F   0  0  0  0  0  1           0  0  0
    1.6464   -2.9458    1.3070 O   0  0  0  0  0  2           0  0  0
   -5.4261    1.6728    3.0899 N   0  0  0  0  0  3           0  0  0
   -5.3347    2.7677    3.8324 N   0  0  0  0  0  3           0  0  0
   -4.6867    0.7567    3.7291 N   0  0  0  0  0  3           0  0  0
   -4.5434    2.5519    4.9369 N   0  0  0  0  0  3           0  0  0
    1.4520    0.0000    0.0000 N   0  0  0  0  0  3           0  0  0
    3.5404    0.7560   -0.0149 N   0  0  0  0  0  3           0  0  0
   -4.1438    1.2975    4.8626 C   0  0  0  0  0  4           0  0  0
    2.2712    1.1119    0.0000 C   0  0  0  0  0  4           0  0  0
    2.2606   -1.1178   -0.0260 C   0  0  0  0  0  4           0  0  0
    3.5494   -0.6156   -0.0328 C   0  0  0  0  0  4           0  0  0
   -3.2917    0.5787    5.7783 C   0  0  0  0  0  4           0  0  0
   -2.0524   -0.0018    5.4071 C   0  0  0  0  0  4           0  0  0
   -1.5376   -0.0008    4.0436 C   0  0  0  0  0  4           0  0  0
   -0.5420    0.0000    1.3965 C   0  0  0  0  0  4           0  0  0
   -3.7278    0.4701    7.1137 C   0  0  0  0  0  4           0  0  0
   -1.2903   -0.6475    6.4047 C   0  0  0  0  0  4           0  0  0
   -1.2946    1.2044    3.3682 C   0  0  0  0  0  4           0  0  0
   -1.2694   -1.2056    3.3770 C   0  0  0  0  0  4           0  0  0
   -0.7999    1.2049    2.0610 C   0  0  0  0  0  4           0  0  0
   -0.7753   -1.2052    2.0697 C   0  0  0  0  0  4           0  0  0
   -2.9559   -0.1765    8.0774 C   0  0  0  0  0  4           0  0  0
   -1.7347   -0.7325    7.7238 C   0  0  0  0  0  4           0  0  0
    4.8218   -1.3519   -0.0544 C   0  0  1  0  0  4           0  0  0
    1.7741   -2.5139   -0.0411 C   0  0  0  0  0  4           0  0  0
    0.0000    0.0000   -0.0000 C   0  0  0  0  0  4           0  0  0
    1.7905    2.5184    0.0161 C   0  0  0  0  0  4           0  0  0
    2.5369    3.3971   -0.9831 C   0  0  0  0  0  4           0  0  0
    2.0518    4.8454   -0.9760 C   0  0  0  0  0  4           0  0  0
    2.7934    5.7253   -1.9710 C   0  0  0  0  0  4           0  0  0
  1 27  1  0     0  0
  2 27  1  0     0  0
  3 27  1  0     0  0
  4 28  1  0     0  0
  5  6  2  0     0  0
  5  7  1  0     0  0
  6  8  1  0     0  0
  7 11  1  0     0  0
  8 11  2  0     0  0
  9 12  1  0     0  0
  9 13  1  0     0  0
  9 29  1  0     0  0
 10 12  2  0     0  0
 10 14  1  0     0  0
 11 15  1  0     0  0
 12 30  1  0     0  0
 13 14  2  0     0  0
 13 28  1  0     0  0
 14 27  1  0     0  0
 15 16  1  0     0  0
 15 19  2  0     0  0
 16 17  1  0     0  0
 16 20  2  0     0  0
 17 21  2  0     0  0
 17 22  1  0     0  0
 18 23  2  0     0  0
 18 24  1  0     0  0
 18 29  1  0     0  0
 19 25  1  0     0  0
 20 26  1  0     0  0
 21 23  1  0     0  0
 22 24  2  0     0  0
 25 26  2  0     0  0
 30 31  1  0     0  0
 31 32  1  0     0  0
 32 33  1  0     0  0
M  END
> <standard_type>
pIC50

> <# Confs.>
25

> <canonical_smiles>
OCC1=C(C(F)(F)F)N=C(CCCC)N1CC2=CC=C(C3=CC=CC=C3C4=NN=NN4)C=C2

> <standard_relation>
=

> <Publication_ID>
Krovat_2003

> <predicted_activity_value>
7.221848749616356

> <actual_activity_value>
7.920818753952375

> <Compound>
1

> <standard_units>
nM

> hash
1814020336607191165

$$$$
1_
XXILIB    08252103443D 0   0.00000     0.00000

 33 36  0     1  0            999 V2000
    5.8939    0.5200    0.0538 F   0  0  0  0  0  1           0  0  0
    4.9300    2.1320    1.1591 F   0  0  0  0  0  1           0  0  0
    4.9626    2.1684   -1.0204 F   0  0  0  0  0  1           0  0  0
    0.7385    2.6253   -0.9261 O   0  0  0  0  0  2           0  0  0
    1.9870    1.5757    5.6637 N   0  0  0  0  0  3           0  0  0
    1.6874    2.4245    6.6374 N   0  0  0  0  0  3           0  0  0
    0.8918    0.8192    5.5129 N   0  0  0  0  0  3           0  0  0
    0.4109    2.2116    7.1040 N   0  0  0  0  0  3           0  0  0
    1.4520   -0.0000    0.0000 N   0  0  0  0  0  3           0  0  0
    3.5404   -0.7560    0.0149 N   0  0  0  0  0  3           0  0  0
   -0.0753    1.2093    6.3986 C   0  0  0  0  0  4           0  0  0
    2.2712   -1.1119    0.0000 C   0  0  0  0  0  4           0  0  0
    2.2606    1.1178    0.0260 C   0  0  0  0  0  4           0  0  0
    3.5494    0.6156    0.0328 C   0  0  0  0  0  4           0  0  0
   -1.3780    0.5977    6.5008 C   0  0  0  0  0  4           0  0  0
   -2.0524   -0.0018    5.4071 C   0  0  0  0  0  4           0  0  0
   -1.5376   -0.0008    4.0436 C   0  0  0  0  0  4           0  0  0
   -0.5420   -0.0000    1.3965 C   0  0  0  0  0  4           0  0  0
   -1.9906    0.5954    7.7696 C   0  0  0  0  0  4           0  0  0
   -3.3081   -0.6023    5.6429 C   0  0  0  0  0  4           0  0  0
   -1.2946    1.2044    3.3682 C   0  0  0  0  0  4           0  0  0
   -1.2694   -1.2056    3.3770 C   0  0  0  0  0  4           0  0  0
   -0.7999    1.2049    2.0610 C   0  0  0  0  0  4           0  0  0
   -0.7753   -1.2052    2.0697 C   0  0  0  0  0  4           0  0  0
   -3.2334   -0.0022    7.9727 C   0  0  0  0  0  4           0  0  0
   -3.8910   -0.6046    6.9097 C   0  0  0  0  0  4           0  0  0
    4.8218    1.3519    0.0544 C   0  0  1  0  0  4           0  0  0
    1.7741    2.5139    0.0411 C   0  0  0  0  0  4           0  0  0
    0.0000    0.0000    0.0000 C   0  0  0  0  0  4           0  0  0
    1.7905   -2.5184   -0.0161 C   0  0  0  0  0  4           0  0  0
    2.5581   -3.3815   -1.0129 C   0  0  0  0  0  4           0  0  0
    2.4409   -2.8743   -2.4488 C   0  0  0  0  0  4           0  0  0
    3.2049   -3.7321   -3.4461 C   0  0  0  0  0  4           0  0  0
  1 27  1  0     0  0
  2 27  1  0     0  0
  3 27  1  0     0  0
  4 28  1  0     0  0
  5  6  2  0     0  0
  5  7  1  0     0  0
  6  8  1  0     0  0
  7 11  1  0     0  0
  8 11  2  0     0  0
  9 12  1  0     0  0
  9 13  1  0     0  0
  9 29  1  0     0  0
 10 12  2  0     0  0
 10 14  1  0     0  0
 11 15  1  0     0  0
 12 30  1  0     0  0
 13 14  2  0     0  0
 13 28  1  0     0  0
 14 27  1  0     0  0
 15 16  1  0     0  0
 15 19  2  0     0  0
 16 17  1  0     0  0
 16 20  2  0     0  0
 17 21  2  0     0  0
 17 22  1  0     0  0
 18 23  2  0     0  0
 18 24  1  0     0  0
 18 29  1  0     0  0
 19 25  1  0     0  0
 20 26  1  0     0  0
 21 23  1  0     0  0
 22 24  2  0     0  0
 25 26  2  0     0  0
 30 31  1  0     0  0
 31 32  1  0     0  0
 32 33  1  0     0  0
M  END
> <standard_type>
pIC50

> <# Confs.>
25

> <canonical_smiles>
OCC1=C(C(F)(F)F)N=C(CCCC)N1CC2=CC=C(C3=CC=CC=C3C4=NN=NN4)C=C2

> <standard_relation>
=

> <Publication_ID>
Krovat_2003

> <predicted_activity_value>
7.221848749616356

> <actual_activity_value>
7.920818753952375

> <Compound>
1

> <standard_units>
nM

> hash
1814020336607191165

$$$$
1_
XXILIB    08252103443D 0   0.00000     0.00000

 33 36  0     1  0            999 V2000
    5.8939   -0.5200   -0.0538 F   0  0  0  0  0  1           0  0  0
    4.9300   -2.1320   -1.1591 F   0  0  0  0  0  1           0  0  0
    4.9626   -2.1684    1.0204 F   0  0  0  0  0  1           0  0  0
    1.6464   -2.9458    1.3070 O   0  0  0  0  0  2           0  0  0
   -5.4261    1.6728    3.0899 N   0  0  0  0  0  3           0  0  0
   -5.3347    2.7677    3.8324 N   0  0  0  0  0  3           0  0  0
   -4.6867    0.7567    3.7291 N   0  0  0  0  0  3           0  0  0
   -4.5434    2.5519    4.9369 N   0  0  0  0  0  3           0  0  0
    1.4520    0.0000    0.0000 N   0  0  0  0  0  3           0  0  0
    3.5404    0.7560   -0.0149 N   0  0  0  0  0  3           0  0  0
   -4.1438    1.2975    4.8626 C   0  0  0  0  0  4           0  0  0
    2.2712    1.1119    0.0000 C   0  0  0  0  0  4           0  0  0
    2.2606   -1.1178   -0.0260 C   0  0  0  0  0  4           0  0  0
    3.5494   -0.6156   -0.0328 C   0  0  0  0  0  4           0  0  0
   -3.2917    0.5787    5.7783 C   0  0  0  0  0  4           0  0  0
   -2.0524   -0.0018    5.4071 C   0  0  0  0  0  4           0  0  0
   -1.5376   -0.0008    4.0436 C   0  0  0  0  0  4           0  0  0
   -0.5420    0.0000    1.3965 C   0  0  0  0  0  4           0  0  0
   -3.7278    0.4701    7.1137 C   0  0  0  0  0  4           0  0  0
   -1.2903   -0.6475    6.4047 C   0  0  0  0  0  4           0  0  0
   -1.2946    1.2044    3.3682 C   0  0  0  0  0  4           0  0  0
   -1.2694   -1.2056    3.3770 C   0  0  0  0  0  4           0  0  0
   -0.7999    1.2049    2.0610 C   0  0  0  0  0  4           0  0  0
   -0.7753   -1.2052    2.0697 C   0  0  0  0  0  4           0  0  0
   -2.9559   -0.1765    8.0774 C   0  0  0  0  0  4           0  0  0
   -1.7347   -0.7325    7.7238 C   0  0  0  0  0  4           0  0  0
    4.8218   -1.3519   -0.0544 C   0  0  1  0  0  4           0  0  0
    1.7741   -2.5139   -0.0411 C   0  0  0  0  0  4           0  0  0
    0.0000    0.0000   -0.0000 C   0  0  0  0  0  4           0  0  0
    1.7905    2.5184    0.0161 C   0  0  0  0  0  4           0  0  0
    2.5369    3.3971   -0.9831 C   0  0  0  0  0  4           0  0  0
    2.3891    2.9124   -2.4239 C   0  0  0  0  0  4           0  0  0
    3.1319    3.7859   -3.4237 C   0  0  0  0  0  4           0  0  0
  1 27  1  0     0  0
  2 27  1  0     0  0
  3 27  1  0     0  0
  4 28  1  0     0  0
  5  6  2  0     0  0
  5  7  1  0     0  0
  6  8  1  0     0  0
  7 11  1  0     0  0
  8 11  2  0     0  0
  9 12  1  0     0  0
  9 13  1  0     0  0
  9 29  1  0     0  0
 10 12  2  0     0  0
 10 14  1  0     0  0
 11 15  1  0     0  0
 12 30  1  0     0  0
 13 14  2  0     0  0
 13 28  1  0     0  0
 14 27  1  0     0  0
 15 16  1  0     0  0
 15 19  2  0     0  0
 16 17  1  0     0  0
 16 20  2  0     0  0
 17 21  2  0     0  0
 17 22  1  0     0  0
 18 23  2  0     0  0
 18 24  1  0     0  0
 18 29  1  0     0  0
 19 25  1  0     0  0
 20 26  1  0     0  0
 21 23  1  0     0  0
 22 24  2  0     0  0
 25 26  2  0     0  0
 30 31  1  0     0  0
 31 32  1  0     0  0
 32 33  1  0     0  0
M  END
> <standard_type>
pIC50

> <# Confs.>
25

> <canonical_smiles>
OCC1=C(C(F)(F)F)N=C(CCCC)N1CC2=CC=C(C3=CC=CC=C3C4=NN=NN4)C=C2

> <standard_relation>
=

> <Publication_ID>
Krovat_2003

> <predicted_activity_value>
7.221848749616356

> <actual_activity_value>
7.920818753952375

> <Compound>
1

> <standard_units>
nM

> hash
1814020336607191165

$$$$
1_
XXILIB    08252103443D 0   0.00000     0.00000

 33 36  0     1  0            999 V2000
    5.8939   -0.5200   -0.0538 F   0  0  0  0  0  1           0  0  0
    4.9300   -2.1320   -1.1591 F   0  0  0  0  0  1           0  0  0
    4.9626   -2.1684    1.0204 F   0  0  0  0  0  1           0  0  0
    1.6464   -2.9458    1.3070 O   0  0  0  0  0  2           0  0  0
   -5.7104   -0.5388    2.9810 N   0  0  0  0  0  3           0  0  0
   -6.1749    0.5832    3.5135 N   0  0  0  0  0  3           0  0  0
   -4.6577   -0.8734    3.7388 N   0  0  0  0  0  3           0  0  0
   -5.4248    0.9614    4.6029 N   0  0  0  0  0  3           0  0  0
    1.4520    0.0000    0.0000 N   0  0  0  0  0  3           0  0  0
    3.5404    0.7560   -0.0149 N   0  0  0  0  0  3           0  0  0
   -4.4820    0.0490    4.7340 C   0  0  0  0  0  4           0  0  0
    2.2712    1.1119    0.0000 C   0  0  0  0  0  4           0  0  0
    2.2606   -1.1178   -0.0260 C   0  0  0  0  0  4           0  0  0
    3.5494   -0.6156   -0.0328 C   0  0  0  0  0  4           0  0  0
   -3.4344   -0.0133    5.7239 C   0  0  0  0  0  4           0  0  0
   -2.0524   -0.0018    5.4071 C   0  0  0  0  0  4           0  0  0
   -1.5376   -0.0008    4.0436 C   0  0  0  0  0  4           0  0  0
   -0.5420    0.0000    1.3965 C   0  0  0  0  0  4           0  0  0
   -3.8282   -0.0756    7.0753 C   0  0  0  0  0  4           0  0  0
   -1.1221   -0.0284    6.4686 C   0  0  0  0  0  4           0  0  0
   -1.2946    1.2044    3.3682 C   0  0  0  0  0  4           0  0  0
   -1.2694   -1.2056    3.3770 C   0  0  0  0  0  4           0  0  0
   -0.7999    1.2049    2.0610 C   0  0  0  0  0  4           0  0  0
   -0.7753   -1.2052    2.0697 C   0  0  0  0  0  4           0  0  0
   -2.8874   -0.1043    8.1033 C   0  0  0  0  0  4           0  0  0
   -1.5336   -0.0771    7.8002 C   0  0  0  0  0  4           0  0  0
    4.8218   -1.3519   -0.0544 C   0  0  1  0  0  4           0  0  0
    1.7741   -2.5139   -0.0411 C   0  0  0  0  0  4           0  0  0
    0.0000    0.0000    0.0000 C   0  0  0  0  0  4           0  0  0
    1.7905    2.5184    0.0161 C   0  0  0  0  0  4           0  0  0
    2.5369    3.3971   -0.9831 C   0  0  0  0  0  4           0  0  0
    2.0518    4.8454   -0.9760 C   0  0  0  0  0  4           0  0  0
    2.7934    5.7253   -1.9710 C   0  0  0  0  0  4           0  0  0
  1 27  1  0     0  0
  2 27  1  0     0  0
  3 27  1  0     0  0
  4 28  1  0     0  0
  5  6  2  0     0  0
  5  7  1  0     0  0
  6  8  1  0     0  0
  7 11  1  0     0  0
  8 11  2  0     0  0
  9 12  1  0     0  0
  9 13  1  0     0  0
  9 29  1  0     0  0
 10 12  2  0     0  0
 10 14  1  0     0  0
 11 15  1  0     0  0
 12 30  1  0     0  0
 13 14  2  0     0  0
 13 28  1  0     0  0
 14 27  1  0     0  0
 15 16  1  0     0  0
 15 19  2  0     0  0
 16 17  1  0     0  0
 16 20  2  0     0  0
 17 21  2  0     0  0
 17 22  1  0     0  0
 18 23  2  0     0  0
 18 24  1  0     0  0
 18 29  1  0     0  0
 19 25  1  0     0  0
 20 26  1  0     0  0
 21 23  1  0     0  0
 22 24  2  0     0  0
 25 26  2  0     0  0
 30 31  1  0     0  0
 31 32  1  0     0  0
 32 33  1  0     0  0
M  END
> <standard_type>
pIC50

> <# Confs.>
25

> <canonical_smiles>
OCC1=C(C(F)(F)F)N=C(CCCC)N1CC2=CC=C(C3=CC=CC=C3C4=NN=NN4)C=C2

> <standard_relation>
=

> <Publication_ID>
Krovat_2003

> <predicted_activity_value>
7.221848749616356

> <actual_activity_value>
7.920818753952375

> <Compound>
1

> <standard_units>
nM

> hash
1814020336607191165

$$$$
1_
XXILIB    08252103443D 0   0.00000     0.00000

 33 36  0     1  0            999 V2000
    5.8939   -0.5200   -0.0538 F   0  0  0  0  0  1           0  0  0
    4.9300   -2.1320   -1.1591 F   0  0  0  0  0  1           0  0  0
    4.9626   -2.1684    1.0204 F   0  0  0  0  0  1           0  0  0
    1.6464   -2.9458    1.3070 O   0  0  0  0  0  2           0  0  0
    1.9870    1.5757    5.6637 N   0  0  0  0  0  3           0  0  0
    1.6874    2.4245    6.6374 N   0  0  0  0  0  3           0  0  0
    0.8918    0.8192    5.5129 N   0  0  0  0  0  3           0  0  0
    0.4109    2.2116    7.1040 N   0  0  0  0  0  3           0  0  0
    1.4520    0.0000    0.0000 N   0  0  0  0  0  3           0  0  0
    3.5404    0.7560   -0.0149 N   0  0  0  0  0  3           0  0  0
   -0.0753    1.2093    6.3986 C   0  0  0  0  0  4           0  0  0
    2.2712    1.1119    0.0000 C   0  0  0  0  0  4           0  0  0
    2.2606   -1.1178   -0.0260 C   0  0  0  0  0  4           0  0  0
    3.5494   -0.6156   -0.0328 C   0  0  0  0  0  4           0  0  0
   -1.3780    0.5977    6.5008 C   0  0  0  0  0  4           0  0  0
   -2.0524   -0.0018    5.4071 C   0  0  0  0  0  4           0  0  0
   -1.5376   -0.0008    4.0436 C   0  0  0  0  0  4           0  0  0
   -0.5420   -0.0000    1.3965 C   0  0  0  0  0  4           0  0  0
   -1.9906    0.5954    7.7696 C   0  0  0  0  0  4           0  0  0
   -3.3081   -0.6023    5.6429 C   0  0  0  0  0  4           0  0  0
   -1.2946    1.2044    3.3682 C   0  0  0  0  0  4           0  0  0
   -1.2694   -1.2056    3.3770 C   0  0  0  0  0  4           0  0  0
   -0.7999    1.2049    2.0610 C   0  0  0  0  0  4           0  0  0
   -0.7753   -1.2052    2.0697 C   0  0  0  0  0  4           0  0  0
   -3.2334   -0.0022    7.9727 C   0  0  0  0  0  4           0  0  0
   -3.8910   -0.6046    6.9097 C   0  0  0  0  0  4           0  0  0
    4.8218   -1.3519   -0.0544 C   0  0  1  0  0  4           0  0  0
    1.7741   -2.5139   -0.0411 C   0  0  0  0  0  4           0  0  0
    0.0000    0.0000    0.0000 C   0  0  0  0  0  4           0  0  0
    1.7905    2.5184    0.0161 C   0  0  0  0  0  4           0  0  0
    2.5581    3.3815    1.0129 C   0  0  0  0  0  4           0  0  0
    2.4409    2.8743    2.4488 C   0  0  0  0  0  4           0  0  0
    3.2049    3.7321    3.4461 C   0  0  0  0  0  4           0  0  0
  1 27  1  0     0  0
  2 27  1  0     0  0
  3 27  1  0     0  0
  4 28  1  0     0  0
  5  6  2  0     0  0
  5  7  1  0     0  0
  6  8  1  0     0  0
  7 11  1  0     0  0
  8 11  2  0     0  0
  9 12  1  0     0  0
  9 13  1  0     0  0
  9 29  1  0     0  0
 10 12  2  0     0  0
 10 14  1  0     0  0
 11 15  1  0     0  0
 12 30  1  0     0  0
 13 14  2  0     0  0
 13 28  1  0     0  0
 14 27  1  0     0  0
 15 16  1  0     0  0
 15 19  2  0     0  0
 16 17  1  0     0  0
 16 20  2  0     0  0
 17 21  2  0     0  0
 17 22  1  0     0  0
 18 23  2  0     0  0
 18 24  1  0     0  0
 18 29  1  0     0  0
 19 25  1  0     0  0
 20 26  1  0     0  0
 21 23  1  0     0  0
 22 24  2  0     0  0
 25 26  2  0     0  0
 30 31  1  0     0  0
 31 32  1  0     0  0
 32 33  1  0     0  0
M  END
> <standard_type>
pIC50

> <# Confs.>
25

> <canonical_smiles>
OCC1=C(C(F)(F)F)N=C(CCCC)N1CC2=CC=C(C3=CC=CC=C3C4=NN=NN4)C=C2

> <standard_relation>
=

> <Publication_ID>
Krovat_2003

> <predicted_activity_value>
7.221848749616356

> <actual_activity_value>
7.920818753952375

> <Compound>
1

> <standard_units>
nM

> hash
1814020336607191165

$$$$
1_
XXILIB    08252103443D 0   0.00000     0.00000

 33 36  0     1  0            999 V2000
    5.8939   -0.5200   -0.0538 F   0  0  0  0  0  1           0  0  0
    4.9300   -2.1320   -1.1591 F   0  0  0  0  0  1           0  0  0
    4.9626   -2.1684    1.0204 F   0  0  0  0  0  1           0  0  0
    1.6464   -2.9458    1.3070 O   0  0  0  0  0  2           0  0  0
   -5.4261    1.6728    3.0899 N   0  0  0  0  0  3           0  0  0
   -5.3347    2.7677    3.8324 N   0  0  0  0  0  3           0  0  0
   -4.6867    0.7567    3.7291 N   0  0  0  0  0  3           0  0  0
   -4.5434    2.5519    4.9369 N   0  0  0  0  0  3           0  0  0
    1.4520    0.0000    0.0000 N   0  0  0  0  0  3           0  0  0
    3.5404    0.7560   -0.0149 N   0  0  0  0  0  3           0  0  0
   -4.1438    1.2975    4.8626 C   0  0  0  0  0  4           0  0  0
    2.2712    1.1119    0.0000 C   0  0  0  0  0  4           0  0  0
    2.2606   -1.1178   -0.0260 C   0  0  0  0  0  4           0  0  0
    3.5494   -0.6156   -0.0328 C   0  0  0  0  0  4           0  0  0
   -3.2917    0.5787    5.7783 C   0  0  0  0  0  4           0  0  0
   -2.0524   -0.0018    5.4071 C   0  0  0  0  0  4           0  0  0
   -1.5376   -0.0008    4.0436 C   0  0  0  0  0  4           0  0  0
   -0.5420    0.0000    1.3965 C   0  0  0  0  0  4           0  0  0
   -3.7278    0.4701    7.1137 C   0  0  0  0  0  4           0  0  0
   -1.2903   -0.6475    6.4047 C   0  0  0  0  0  4           0  0  0
   -1.2946    1.2044    3.3682 C   0  0  0  0  0  4           0  0  0
   -1.2694   -1.2056    3.3770 C   0  0  0  0  0  4           0  0  0
   -0.7999    1.2049    2.0610 C   0  0  0  0  0  4           0  0  0
   -0.7753   -1.2052    2.0697 C   0  0  0  0  0  4           0  0  0
   -2.9559   -0.1765    8.0774 C   0  0  0  0  0  4           0  0  0
   -1.7347   -0.7325    7.7238 C   0  0  0  0  0  4           0  0  0
    4.8218   -1.3519   -0.0544 C   0  0  1  0  0  4           0  0  0
    1.7741   -2.5139   -0.0411 C   0  0  0  0  0  4           0  0  0
    0.0000    0.0000   -0.0000 C   0  0  0  0  0  4           0  0  0
    1.7905    2.5184    0.0161 C   0  0  0  0  0  4           0  0  0
    2.5581    3.3815    1.0129 C   0  0  0  0  0  4           0  0  0
    2.0732    4.8296    1.0388 C   0  0  0  0  0  4           0  0  0
    2.8360    5.6939    2.0315 C   0  0  0  0  0  4           0  0  0
  1 27  1  0     0  0
  2 27  1  0     0  0
  3 27  1  0     0  0
  4 28  1  0     0  0
  5  6  2  0     0  0
  5  7  1  0     0  0
  6  8  1  0     0  0
  7 11  1  0     0  0
  8 11  2  0     0  0
  9 12  1  0     0  0
  9 13  1  0     0  0
  9 29  1  0     0  0
 10 12  2  0     0  0
 10 14  1  0     0  0
 11 15  1  0     0  0
 12 30  1  0     0  0
 13 14  2  0     0  0
 13 28  1  0     0  0
 14 27  1  0     0  0
 15 16  1  0     0  0
 15 19  2  0     0  0
 16 17  1  0     0  0
 16 20  2  0     0  0
 17 21  2  0     0  0
 17 22  1  0     0  0
 18 23  2  0     0  0
 18 24  1  0     0  0
 18 29  1  0     0  0
 19 25  1  0     0  0
 20 26  1  0     0  0
 21 23  1  0     0  0
 22 24  2  0     0  0
 25 26  2  0     0  0
 30 31  1  0     0  0
 31 32  1  0     0  0
 32 33  1  0     0  0
M  END
> <standard_type>
pIC50

> <# Confs.>
25

> <canonical_smiles>
OCC1=C(C(F)(F)F)N=C(CCCC)N1CC2=CC=C(C3=CC=CC=C3C4=NN=NN4)C=C2

> <standard_relation>
=

> <Publication_ID>
Krovat_2003

> <predicted_activity_value>
7.221848749616356

> <actual_activity_value>
7.920818753952375

> <Compound>
1

> <standard_units>
nM

> hash
1814020336607191165

$$$$
1_
XXILIB    08252103443D 0   0.00000     0.00000

 33 36  0     1  0            999 V2000
    5.8939    0.5200    0.0538 F   0  0  0  0  0  1           0  0  0
    4.9300    2.1320    1.1591 F   0  0  0  0  0  1           0  0  0
    4.9626    2.1684   -1.0204 F   0  0  0  0  0  1           0  0  0
    1.6464    2.9458   -1.3070 O   0  0  0  0  0  2           0  0  0
   -3.5672   -3.9051    3.8134 N   0  0  0  0  0  3           0  0  0
   -2.7886   -4.5052    4.7034 N   0  0  0  0  0  3           0  0  0
   -3.6068   -2.6218    4.1954 N   0  0  0  0  0  3           0  0  0
   -2.3346   -3.6116    5.6458 N   0  0  0  0  0  3           0  0  0
    1.4520   -0.0000    0.0000 N   0  0  0  0  0  3           0  0  0
    3.5404   -0.7560    0.0149 N   0  0  0  0  0  3           0  0  0
   -2.8507   -2.4424    5.3215 C   0  0  0  0  0  4           0  0  0
    2.2712   -1.1119    0.0000 C   0  0  0  0  0  4           0  0  0
    2.2606    1.1178    0.0260 C   0  0  0  0  0  4           0  0  0
    3.5494    0.6156    0.0328 C   0  0  0  0  0  4           0  0  0
   -2.6827   -1.1774    5.9945 C   0  0  0  0  0  4           0  0  0
   -2.1219   -0.0291    5.3802 C   0  0  0  0  0  4           0  0  0
   -1.5851   -0.0203    4.0252 C   0  0  0  0  0  4           0  0  0
   -0.5420    0.0000    1.3965 C   0  0  0  0  0  4           0  0  0
   -3.1185   -1.0965    7.3319 C   0  0  0  0  0  4           0  0  0
   -2.0462    1.1630    6.1326 C   0  0  0  0  0  4           0  0  0
   -0.5193   -0.8600    3.6691 C   0  0  0  0  0  4           0  0  0
   -2.1253    0.8253    3.0448 C   0  0  0  0  0  4           0  0  0
   -0.0056   -0.8520    2.3693 C   0  0  0  0  0  4           0  0  0
   -1.6112    0.8337    1.7453 C   0  0  0  0  0  4           0  0  0
   -3.0283    0.0934    8.0523 C   0  0  0  0  0  4           0  0  0
   -2.4952    1.2248    7.4514 C   0  0  0  0  0  4           0  0  0
    4.8218    1.3519    0.0544 C   0  0  1  0  0  4           0  0  0
    1.7741    2.5139    0.0411 C   0  0  0  0  0  4           0  0  0
    0.0000    0.0000    0.0000 C   0  0  0  0  0  4           0  0  0
    1.7905   -2.5184   -0.0161 C   0  0  0  0  0  4           0  0  0
    2.5581   -3.3815   -1.0129 C   0  0  0  0  0  4           0  0  0
    2.0732   -4.8296   -1.0388 C   0  0  0  0  0  4           0  0  0
    2.8360   -5.6939   -2.0315 C   0  0  0  0  0  4           0  0  0
  1 27  1  0     0  0
  2 27  1  0     0  0
  3 27  1  0     0  0
  4 28  1  0     0  0
  5  6  2  0     0  0
  5  7  1  0     0  0
  6  8  1  0     0  0
  7 11  1  0     0  0
  8 11  2  0     0  0
  9 12  1  0     0  0
  9 13  1  0     0  0
  9 29  1  0     0  0
 10 12  2  0     0  0
 10 14  1  0     0  0
 11 15  1  0     0  0
 12 30  1  0     0  0
 13 14  2  0     0  0
 13 28  1  0     0  0
 14 27  1  0     0  0
 15 16  1  0     0  0
 15 19  2  0     0  0
 16 17  1  0     0  0
 16 20  2  0     0  0
 17 21  2  0     0  0
 17 22  1  0     0  0
 18 23  2  0     0  0
 18 24  1  0     0  0
 18 29  1  0     0  0
 19 25  1  0     0  0
 20 26  1  0     0  0
 21 23  1  0     0  0
 22 24  2  0     0  0
 25 26  2  0     0  0
 30 31  1  0     0  0
 31 32  1  0     0  0
 32 33  1  0     0  0
M  END
> <standard_type>
pIC50

> <# Confs.>
25

> <canonical_smiles>
OCC1=C(C(F)(F)F)N=C(CCCC)N1CC2=CC=C(C3=CC=CC=C3C4=NN=NN4)C=C2

> <standard_relation>
=

> <Publication_ID>
Krovat_2003

> <predicted_activity_value>
7.221848749616356

> <actual_activity_value>
7.920818753952375

> <Compound>
1

> <standard_units>
nM

> hash
1814020336607191165

$$$$
1_
XXILIB    08252103443D 0   0.00000     0.00000

 33 36  0     1  0            999 V2000
    5.8939   -0.5200   -0.0538 F   0  0  0  0  0  1           0  0  0
    4.9300   -2.1320   -1.1591 F   0  0  0  0  0  1           0  0  0
    4.9626   -2.1684    1.0204 F   0  0  0  0  0  1           0  0  0
    1.6464   -2.9458    1.3070 O   0  0  0  0  0  2           0  0  0
   -5.7104   -0.5388    2.9810 N   0  0  0  0  0  3           0  0  0
   -6.1749    0.5832    3.5135 N   0  0  0  0  0  3           0  0  0
   -4.6577   -0.8734    3.7388 N   0  0  0  0  0  3           0  0  0
   -5.4248    0.9614    4.6029 N   0  0  0  0  0  3           0  0  0
    1.4520    0.0000    0.0000 N   0  0  0  0  0  3           0  0  0
    3.5404    0.7560   -0.0149 N   0  0  0  0  0  3           0  0  0
   -4.4820    0.0490    4.7340 C   0  0  0  0  0  4           0  0  0
    2.2712    1.1119    0.0000 C   0  0  0  0  0  4           0  0  0
    2.2606   -1.1178   -0.0260 C   0  0  0  0  0  4           0  0  0
    3.5494   -0.6156   -0.0328 C   0  0  0  0  0  4           0  0  0
   -3.4344   -0.0133    5.7239 C   0  0  0  0  0  4           0  0  0
   -2.0524   -0.0018    5.4071 C   0  0  0  0  0  4           0  0  0
   -1.5376   -0.0008    4.0436 C   0  0  0  0  0  4           0  0  0
   -0.5420    0.0000    1.3965 C   0  0  0  0  0  4           0  0  0
   -3.8282   -0.0756    7.0753 C   0  0  0  0  0  4           0  0  0
   -1.1221   -0.0284    6.4686 C   0  0  0  0  0  4           0  0  0
   -1.2946    1.2044    3.3682 C   0  0  0  0  0  4           0  0  0
   -1.2694   -1.2056    3.3770 C   0  0  0  0  0  4           0  0  0
   -0.7999    1.2049    2.0610 C   0  0  0  0  0  4           0  0  0
   -0.7753   -1.2052    2.0697 C   0  0  0  0  0  4           0  0  0
   -2.8874   -0.1043    8.1033 C   0  0  0  0  0  4           0  0  0
   -1.5336   -0.0771    7.8002 C   0  0  0  0  0  4           0  0  0
    4.8218   -1.3519   -0.0544 C   0  0  1  0  0  4           0  0  0
    1.7741   -2.5139   -0.0411 C   0  0  0  0  0  4           0  0  0
    0.0000    0.0000    0.0000 C   0  0  0  0  0  4           0  0  0
    1.7905    2.5184    0.0161 C   0  0  0  0  0  4           0  0  0
    2.5369    3.3971   -0.9831 C   0  0  0  0  0  4           0  0  0
    2.3891    2.9124   -2.4239 C   0  0  0  0  0  4           0  0  0
    3.1319    3.7859   -3.4237 C   0  0  0  0  0  4           0  0  0
  1 27  1  0     0  0
  2 27  1  0     0  0
  3 27  1  0     0  0
  4 28  1  0     0  0
  5  6  2  0     0  0
  5  7  1  0     0  0
  6  8  1  0     0  0
  7 11  1  0     0  0
  8 11  2  0     0  0
  9 12  1  0     0  0
  9 13  1  0     0  0
  9 29  1  0     0  0
 10 12  2  0     0  0
 10 14  1  0     0  0
 11 15  1  0     0  0
 12 30  1  0     0  0
 13 14  2  0     0  0
 13 28  1  0     0  0
 14 27  1  0     0  0
 15 16  1  0     0  0
 15 19  2  0     0  0
 16 17  1  0     0  0
 16 20  2  0     0  0
 17 21  2  0     0  0
 17 22  1  0     0  0
 18 23  2  0     0  0
 18 24  1  0     0  0
 18 29  1  0     0  0
 19 25  1  0     0  0
 20 26  1  0     0  0
 21 23  1  0     0  0
 22 24  2  0     0  0
 25 26  2  0     0  0
 30 31  1  0     0  0
 31 32  1  0     0  0
 32 33  1  0     0  0
M  END
> <standard_type>
pIC50

> <# Confs.>
25

> <canonical_smiles>
OCC1=C(C(F)(F)F)N=C(CCCC)N1CC2=CC=C(C3=CC=CC=C3C4=NN=NN4)C=C2

> <standard_relation>
=

> <Publication_ID>
Krovat_2003

> <predicted_activity_value>
7.221848749616356

> <actual_activity_value>
7.920818753952375

> <Compound>
1

> <standard_units>
nM

> hash
1814020336607191165

$$$$
1_
XXILIB    08252103443D 0   0.00000     0.00000

 33 36  0     1  0            999 V2000
    5.8939    0.5200    0.0538 F   0  0  0  0  0  1           0  0  0
    4.9300    2.1320    1.1591 F   0  0  0  0  0  1           0  0  0
    4.9626    2.1684   -1.0204 F   0  0  0  0  0  1           0  0  0
    1.6464    2.9458   -1.3070 O   0  0  0  0  0  2           0  0  0
   -3.5672   -3.9051    3.8134 N   0  0  0  0  0  3           0  0  0
   -2.7886   -4.5052    4.7034 N   0  0  0  0  0  3           0  0  0
   -3.6068   -2.6218    4.1954 N   0  0  0  0  0  3           0  0  0
   -2.3346   -3.6116    5.6458 N   0  0  0  0  0  3           0  0  0
    1.4520   -0.0000    0.0000 N   0  0  0  0  0  3           0  0  0
    3.5404   -0.7560    0.0149 N   0  0  0  0  0  3           0  0  0
   -2.8507   -2.4424    5.3215 C   0  0  0  0  0  4           0  0  0
    2.2712   -1.1119    0.0000 C   0  0  0  0  0  4           0  0  0
    2.2606    1.1178    0.0260 C   0  0  0  0  0  4           0  0  0
    3.5494    0.6156    0.0328 C   0  0  0  0  0  4           0  0  0
   -2.6827   -1.1774    5.9945 C   0  0  0  0  0  4           0  0  0
   -2.1219   -0.0291    5.3802 C   0  0  0  0  0  4           0  0  0
   -1.5851   -0.0203    4.0252 C   0  0  0  0  0  4           0  0  0
   -0.5420    0.0000    1.3965 C   0  0  0  0  0  4           0  0  0
   -3.1185   -1.0965    7.3319 C   0  0  0  0  0  4           0  0  0
   -2.0462    1.1630    6.1326 C   0  0  0  0  0  4           0  0  0
   -0.5193   -0.8600    3.6691 C   0  0  0  0  0  4           0  0  0
   -2.1253    0.8253    3.0448 C   0  0  0  0  0  4           0  0  0
   -0.0056   -0.8520    2.3693 C   0  0  0  0  0  4           0  0  0
   -1.6112    0.8337    1.7453 C   0  0  0  0  0  4           0  0  0
   -3.0283    0.0934    8.0523 C   0  0  0  0  0  4           0  0  0
   -2.4952    1.2248    7.4514 C   0  0  0  0  0  4           0  0  0
    4.8218    1.3519    0.0544 C   0  0  1  0  0  4           0  0  0
    1.7741    2.5139    0.0411 C   0  0  0  0  0  4           0  0  0
    0.0000    0.0000    0.0000 C   0  0  0  0  0  4           0  0  0
    1.7905   -2.5184   -0.0161 C   0  0  0  0  0  4           0  0  0
    2.5581   -3.3815   -1.0129 C   0  0  0  0  0  4           0  0  0
    2.4409   -2.8743   -2.4488 C   0  0  0  0  0  4           0  0  0
    3.2049   -3.7321   -3.4461 C   0  0  0  0  0  4           0  0  0
  1 27  1  0     0  0
  2 27  1  0     0  0
  3 27  1  0     0  0
  4 28  1  0     0  0
  5  6  2  0     0  0
  5  7  1  0     0  0
  6  8  1  0     0  0
  7 11  1  0     0  0
  8 11  2  0     0  0
  9 12  1  0     0  0
  9 13  1  0     0  0
  9 29  1  0     0  0
 10 12  2  0     0  0
 10 14  1  0     0  0
 11 15  1  0     0  0
 12 30  1  0     0  0
 13 14  2  0     0  0
 13 28  1  0     0  0
 14 27  1  0     0  0
 15 16  1  0     0  0
 15 19  2  0     0  0
 16 17  1  0     0  0
 16 20  2  0     0  0
 17 21  2  0     0  0
 17 22  1  0     0  0
 18 23  2  0     0  0
 18 24  1  0     0  0
 18 29  1  0     0  0
 19 25  1  0     0  0
 20 26  1  0     0  0
 21 23  1  0     0  0
 22 24  2  0     0  0
 25 26  2  0     0  0
 30 31  1  0     0  0
 31 32  1  0     0  0
 32 33  1  0     0  0
M  END
> <standard_type>
pIC50

> <# Confs.>
25

> <canonical_smiles>
OCC1=C(C(F)(F)F)N=C(CCCC)N1CC2=CC=C(C3=CC=CC=C3C4=NN=NN4)C=C2

> <standard_relation>
=

> <Publication_ID>
Krovat_2003

> <predicted_activity_value>
7.221848749616356

> <actual_activity_value>
7.920818753952375

> <Compound>
1

> <standard_units>
nM

> hash
1814020336607191165

$$$$
1_
XXILIB    08252103443D 0   0.00000     0.00000

 33 36  0     1  0            999 V2000
    5.8939   -0.5200   -0.0538 F   0  0  0  0  0  1           0  0  0
    4.9300   -2.1320   -1.1591 F   0  0  0  0  0  1           0  0  0
    4.9626   -2.1684    1.0204 F   0  0  0  0  0  1           0  0  0
    1.6464   -2.9458    1.3070 O   0  0  0  0  0  2           0  0  0
   -5.4261    1.6728    3.0899 N   0  0  0  0  0  3           0  0  0
   -5.3347    2.7677    3.8324 N   0  0  0  0  0  3           0  0  0
   -4.6867    0.7567    3.7291 N   0  0  0  0  0  3           0  0  0
   -4.5434    2.5519    4.9369 N   0  0  0  0  0  3           0  0  0
    1.4520    0.0000    0.0000 N   0  0  0  0  0  3           0  0  0
    3.5404    0.7560   -0.0149 N   0  0  0  0  0  3           0  0  0
   -4.1438    1.2975    4.8626 C   0  0  0  0  0  4           0  0  0
    2.2712    1.1119    0.0000 C   0  0  0  0  0  4           0  0  0
    2.2606   -1.1178   -0.0260 C   0  0  0  0  0  4           0  0  0
    3.5494   -0.6156   -0.0328 C   0  0  0  0  0  4           0  0  0
   -3.2917    0.5787    5.7783 C   0  0  0  0  0  4           0  0  0
   -2.0524   -0.0018    5.4071 C   0  0  0  0  0  4           0  0  0
   -1.5376   -0.0008    4.0436 C   0  0  0  0  0  4           0  0  0
   -0.5420    0.0000    1.3965 C   0  0  0  0  0  4           0  0  0
   -3.7278    0.4701    7.1137 C   0  0  0  0  0  4           0  0  0
   -1.2903   -0.6475    6.4047 C   0  0  0  0  0  4           0  0  0
   -1.2946    1.2044    3.3682 C   0  0  0  0  0  4           0  0  0
   -1.2694   -1.2056    3.3770 C   0  0  0  0  0  4           0  0  0
   -0.7999    1.2049    2.0610 C   0  0  0  0  0  4           0  0  0
   -0.7753   -1.2052    2.0697 C   0  0  0  0  0  4           0  0  0
   -2.9559   -0.1765    8.0774 C   0  0  0  0  0  4           0  0  0
   -1.7347   -0.7325    7.7238 C   0  0  0  0  0  4           0  0  0
    4.8218   -1.3519   -0.0544 C   0  0  1  0  0  4           0  0  0
    1.7741   -2.5139   -0.0411 C   0  0  0  0  0  4           0  0  0
    0.0000    0.0000   -0.0000 C   0  0  0  0  0  4           0  0  0
    1.7905    2.5184    0.0161 C   0  0  0  0  0  4           0  0  0
    2.5581    3.3815    1.0129 C   0  0  0  0  0  4           0  0  0
    2.4409    2.8743    2.4488 C   0  0  0  0  0  4           0  0  0
    3.2049    3.7321    3.4461 C   0  0  0  0  0  4           0  0  0
  1 27  1  0     0  0
  2 27  1  0     0  0
  3 27  1  0     0  0
  4 28  1  0     0  0
  5  6  2  0     0  0
  5  7  1  0     0  0
  6  8  1  0     0  0
  7 11  1  0     0  0
  8 11  2  0     0  0
  9 12  1  0     0  0
  9 13  1  0     0  0
  9 29  1  0     0  0
 10 12  2  0     0  0
 10 14  1  0     0  0
 11 15  1  0     0  0
 12 30  1  0     0  0
 13 14  2  0     0  0
 13 28  1  0     0  0
 14 27  1  0     0  0
 15 16  1  0     0  0
 15 19  2  0     0  0
 16 17  1  0     0  0
 16 20  2  0     0  0
 17 21  2  0     0  0
 17 22  1  0     0  0
 18 23  2  0     0  0
 18 24  1  0     0  0
 18 29  1  0     0  0
 19 25  1  0     0  0
 20 26  1  0     0  0
 21 23  1  0     0  0
 22 24  2  0     0  0
 25 26  2  0     0  0
 30 31  1  0     0  0
 31 32  1  0     0  0
 32 33  1  0     0  0
M  END
> <standard_type>
pIC50

> <# Confs.>
25

> <canonical_smiles>
OCC1=C(C(F)(F)F)N=C(CCCC)N1CC2=CC=C(C3=CC=CC=C3C4=NN=NN4)C=C2

> <standard_relation>
=

> <Publication_ID>
Krovat_2003

> <predicted_activity_value>
7.221848749616356

> <actual_activity_value>
7.920818753952375

> <Compound>
1

> <standard_units>
nM

> hash
1814020336607191165

$$$$
1_
XXILIB    08252103443D 0   0.00000     0.00000

 33 36  0     1  0            999 V2000
    5.8939    0.5200    0.0538 F   0  0  0  0  0  1           0  0  0
    4.9300    2.1320    1.1591 F   0  0  0  0  0  1           0  0  0
    4.9626    2.1684   -1.0204 F   0  0  0  0  0  1           0  0  0
    1.6464    2.9458   -1.3070 O   0  0  0  0  0  2           0  0  0
   -3.5672   -3.9051    3.8134 N   0  0  0  0  0  3           0  0  0
   -2.7886   -4.5052    4.7034 N   0  0  0  0  0  3           0  0  0
   -3.6068   -2.6218    4.1954 N   0  0  0  0  0  3           0  0  0
   -2.3346   -3.6116    5.6458 N   0  0  0  0  0  3           0  0  0
    1.4520   -0.0000    0.0000 N   0  0  0  0  0  3           0  0  0
    3.5404   -0.7560    0.0149 N   0  0  0  0  0  3           0  0  0
   -2.8507   -2.4424    5.3215 C   0  0  0  0  0  4           0  0  0
    2.2712   -1.1119    0.0000 C   0  0  0  0  0  4           0  0  0
    2.2606    1.1178    0.0260 C   0  0  0  0  0  4           0  0  0
    3.5494    0.6156    0.0328 C   0  0  0  0  0  4           0  0  0
   -2.6827   -1.1774    5.9945 C   0  0  0  0  0  4           0  0  0
   -2.1219   -0.0291    5.3802 C   0  0  0  0  0  4           0  0  0
   -1.5851   -0.0203    4.0252 C   0  0  0  0  0  4           0  0  0
   -0.5420    0.0000    1.3965 C   0  0  0  0  0  4           0  0  0
   -3.1185   -1.0965    7.3319 C   0  0  0  0  0  4           0  0  0
   -2.0462    1.1630    6.1326 C   0  0  0  0  0  4           0  0  0
   -0.5193   -0.8600    3.6691 C   0  0  0  0  0  4           0  0  0
   -2.1253    0.8253    3.0448 C   0  0  0  0  0  4           0  0  0
   -0.0056   -0.8520    2.3693 C   0  0  0  0  0  4           0  0  0
   -1.6112    0.8337    1.7453 C   0  0  0  0  0  4           0  0  0
   -3.0283    0.0934    8.0523 C   0  0  0  0  0  4           0  0  0
   -2.4952    1.2248    7.4514 C   0  0  0  0  0  4           0  0  0
    4.8218    1.3519    0.0544 C   0  0  1  0  0  4           0  0  0
    1.7741    2.5139    0.0411 C   0  0  0  0  0  4           0  0  0
    0.0000    0.0000    0.0000 C   0  0  0  0  0  4           0  0  0
    1.7905   -2.5184   -0.0161 C   0  0  0  0  0  4           0  0  0
    2.5369   -3.3971    0.9831 C   0  0  0  0  0  4           0  0  0
    2.0518   -4.8454    0.9760 C   0  0  0  0  0  4           0  0  0
    2.7934   -5.7253    1.9710 C   0  0  0  0  0  4           0  0  0
  1 27  1  0     0  0
  2 27  1  0     0  0
  3 27  1  0     0  0
  4 28  1  0     0  0
  5  6  2  0     0  0
  5  7  1  0     0  0
  6  8  1  0     0  0
  7 11  1  0     0  0
  8 11  2  0     0  0
  9 12  1  0     0  0
  9 13  1  0     0  0
  9 29  1  0     0  0
 10 12  2  0     0  0
 10 14  1  0     0  0
 11 15  1  0     0  0
 12 30  1  0     0  0
 13 14  2  0     0  0
 13 28  1  0     0  0
 14 27  1  0     0  0
 15 16  1  0     0  0
 15 19  2  0     0  0
 16 17  1  0     0  0
 16 20  2  0     0  0
 17 21  2  0     0  0
 17 22  1  0     0  0
 18 23  2  0     0  0
 18 24  1  0     0  0
 18 29  1  0     0  0
 19 25  1  0     0  0
 20 26  1  0     0  0
 21 23  1  0     0  0
 22 24  2  0     0  0
 25 26  2  0     0  0
 30 31  1  0     0  0
 31 32  1  0     0  0
 32 33  1  0     0  0
M  END
> <standard_type>
pIC50

> <# Confs.>
25

> <canonical_smiles>
OCC1=C(C(F)(F)F)N=C(CCCC)N1CC2=CC=C(C3=CC=CC=C3C4=NN=NN4)C=C2

> <standard_relation>
=

> <Publication_ID>
Krovat_2003

> <predicted_activity_value>
7.221848749616356

> <actual_activity_value>
7.920818753952375

> <Compound>
1

> <standard_units>
nM

> hash
1814020336607191165

$$$$
1_
XXILIB    08252103443D 0   0.00000     0.00000

 33 36  0     1  0            999 V2000
    5.8939   -0.5200   -0.0538 F   0  0  0  0  0  1           0  0  0
    4.9300   -2.1320   -1.1591 F   0  0  0  0  0  1           0  0  0
    4.9626   -2.1684    1.0204 F   0  0  0  0  0  1           0  0  0
    1.6464   -2.9458    1.3070 O   0  0  0  0  0  2           0  0  0
    1.9870    1.5757    5.6637 N   0  0  0  0  0  3           0  0  0
    1.6874    2.4245    6.6374 N   0  0  0  0  0  3           0  0  0
    0.8918    0.8192    5.5129 N   0  0  0  0  0  3           0  0  0
    0.4109    2.2116    7.1040 N   0  0  0  0  0  3           0  0  0
    1.4520    0.0000    0.0000 N   0  0  0  0  0  3           0  0  0
    3.5404    0.7560   -0.0149 N   0  0  0  0  0  3           0  0  0
   -0.0753    1.2093    6.3986 C   0  0  0  0  0  4           0  0  0
    2.2712    1.1119    0.0000 C   0  0  0  0  0  4           0  0  0
    2.2606   -1.1178   -0.0260 C   0  0  0  0  0  4           0  0  0
    3.5494   -0.6156   -0.0328 C   0  0  0  0  0  4           0  0  0
   -1.3780    0.5977    6.5008 C   0  0  0  0  0  4           0  0  0
   -2.0524   -0.0018    5.4071 C   0  0  0  0  0  4           0  0  0
   -1.5376   -0.0008    4.0436 C   0  0  0  0  0  4           0  0  0
   -0.5420   -0.0000    1.3965 C   0  0  0  0  0  4           0  0  0
   -1.9906    0.5954    7.7696 C   0  0  0  0  0  4           0  0  0
   -3.3081   -0.6023    5.6429 C   0  0  0  0  0  4           0  0  0
   -1.2946    1.2044    3.3682 C   0  0  0  0  0  4           0  0  0
   -1.2694   -1.2056    3.3770 C   0  0  0  0  0  4           0  0  0
   -0.7999    1.2049    2.0610 C   0  0  0  0  0  4           0  0  0
   -0.7753   -1.2052    2.0697 C   0  0  0  0  0  4           0  0  0
   -3.2334   -0.0022    7.9727 C   0  0  0  0  0  4           0  0  0
   -3.8910   -0.6046    6.9097 C   0  0  0  0  0  4           0  0  0
    4.8218   -1.3519   -0.0544 C   0  0  1  0  0  4           0  0  0
    1.7741   -2.5139   -0.0411 C   0  0  0  0  0  4           0  0  0
    0.0000    0.0000    0.0000 C   0  0  0  0  0  4           0  0  0
    1.7905    2.5184    0.0161 C   0  0  0  0  0  4           0  0  0
    1.5881    3.0775   -1.3889 C   0  0  0  0  0  4           0  0  0
    1.0941    4.5227   -1.3856 C   0  0  0  0  0  4           0  0  0
   -0.2403    4.6928   -0.6750 C   0  0  0  0  0  4           0  0  0
  1 27  1  0     0  0
  2 27  1  0     0  0
  3 27  1  0     0  0
  4 28  1  0     0  0
  5  6  2  0     0  0
  5  7  1  0     0  0
  6  8  1  0     0  0
  7 11  1  0     0  0
  8 11  2  0     0  0
  9 12  1  0     0  0
  9 13  1  0     0  0
  9 29  1  0     0  0
 10 12  2  0     0  0
 10 14  1  0     0  0
 11 15  1  0     0  0
 12 30  1  0     0  0
 13 14  2  0     0  0
 13 28  1  0     0  0
 14 27  1  0     0  0
 15 16  1  0     0  0
 15 19  2  0     0  0
 16 17  1  0     0  0
 16 20  2  0     0  0
 17 21  2  0     0  0
 17 22  1  0     0  0
 18 23  2  0     0  0
 18 24  1  0     0  0
 18 29  1  0     0  0
 19 25  1  0     0  0
 20 26  1  0     0  0
 21 23  1  0     0  0
 22 24  2  0     0  0
 25 26  2  0     0  0
 30 31  1  0     0  0
 31 32  1  0     0  0
 32 33  1  0     0  0
M  END
> <standard_type>
pIC50

> <# Confs.>
25

> <canonical_smiles>
OCC1=C(C(F)(F)F)N=C(CCCC)N1CC2=CC=C(C3=CC=CC=C3C4=NN=NN4)C=C2

> <standard_relation>
=

> <Publication_ID>
Krovat_2003

> <predicted_activity_value>
7.221848749616356

> <actual_activity_value>
7.920818753952375

> <Compound>
1

> <standard_units>
nM

> hash
1814020336607191165

$$$$
1_
XXILIB    08252103443D 0   0.00000     0.00000

 33 36  0     1  0            999 V2000
    5.8939   -0.5200   -0.0538 F   0  0  0  0  0  1           0  0  0
    4.9300   -2.1320   -1.1591 F   0  0  0  0  0  1           0  0  0
    4.9626   -2.1684    1.0204 F   0  0  0  0  0  1           0  0  0
    1.6464   -2.9458    1.3070 O   0  0  0  0  0  2           0  0  0
    2.2387   -0.8517    6.0636 N   0  0  0  0  0  3           0  0  0
    2.3308    0.3182    6.6810 N   0  0  0  0  0  3           0  0  0
    0.9241   -1.0844    5.9540 N   0  0  0  0  0  3           0  0  0
    1.0847    0.8283    6.9628 N   0  0  0  0  0  3           0  0  0
    1.4520    0.0000    0.0000 N   0  0  0  0  0  3           0  0  0
    3.5404    0.7560   -0.0149 N   0  0  0  0  0  3           0  0  0
    0.2158   -0.0529    6.5076 C   0  0  0  0  0  4           0  0  0
    2.2712    1.1119    0.0000 C   0  0  0  0  0  4           0  0  0
    2.2606   -1.1178   -0.0260 C   0  0  0  0  0  4           0  0  0
    3.5494   -0.6156   -0.0328 C   0  0  0  0  0  4           0  0  0
   -1.2246    0.0086    6.5583 C   0  0  0  0  0  4           0  0  0
   -2.0524   -0.0018    5.4071 C   0  0  0  0  0  4           0  0  0
   -1.5376   -0.0008    4.0436 C   0  0  0  0  0  4           0  0  0
   -0.5420   -0.0000    1.3965 C   0  0  0  0  0  4           0  0  0
   -1.8223    0.0690    7.8328 C   0  0  0  0  0  4           0  0  0
   -3.4521    0.0238    5.5889 C   0  0  0  0  0  4           0  0  0
   -1.2946    1.2044    3.3682 C   0  0  0  0  0  4           0  0  0
   -1.2694   -1.2056    3.3770 C   0  0  0  0  0  4           0  0  0
   -0.7999    1.2049    2.0610 C   0  0  0  0  0  4           0  0  0
   -0.7753   -1.2052    2.0697 C   0  0  0  0  0  4           0  0  0
   -3.2078    0.0968    7.9825 C   0  0  0  0  0  4           0  0  0
   -4.0234    0.0706    6.8602 C   0  0  0  0  0  4           0  0  0
    4.8218   -1.3519   -0.0544 C   0  0  1  0  0  4           0  0  0
    1.7741   -2.5139   -0.0411 C   0  0  0  0  0  4           0  0  0
    0.0000    0.0000    0.0000 C   0  0  0  0  0  4           0  0  0
    1.7905    2.5184    0.0161 C   0  0  0  0  0  4           0  0  0
    2.5369    3.3971   -0.9831 C   0  0  0  0  0  4           0  0  0
    2.0518    4.8454   -0.9760 C   0  0  0  0  0  4           0  0  0
    2.7934    5.7253   -1.9710 C   0  0  0  0  0  4           0  0  0
  1 27  1  0     0  0
  2 27  1  0     0  0
  3 27  1  0     0  0
  4 28  1  0     0  0
  5  6  2  0     0  0
  5  7  1  0     0  0
  6  8  1  0     0  0
  7 11  1  0     0  0
  8 11  2  0     0  0
  9 12  1  0     0  0
  9 13  1  0     0  0
  9 29  1  0     0  0
 10 12  2  0     0  0
 10 14  1  0     0  0
 11 15  1  0     0  0
 12 30  1  0     0  0
 13 14  2  0     0  0
 13 28  1  0     0  0
 14 27  1  0     0  0
 15 16  1  0     0  0
 15 19  2  0     0  0
 16 17  1  0     0  0
 16 20  2  0     0  0
 17 21  2  0     0  0
 17 22  1  0     0  0
 18 23  2  0     0  0
 18 24  1  0     0  0
 18 29  1  0     0  0
 19 25  1  0     0  0
 20 26  1  0     0  0
 21 23  1  0     0  0
 22 24  2  0     0  0
 25 26  2  0     0  0
 30 31  1  0     0  0
 31 32  1  0     0  0
 32 33  1  0     0  0
M  END
> <standard_type>
pIC50

> <# Confs.>
25

> <canonical_smiles>
OCC1=C(C(F)(F)F)N=C(CCCC)N1CC2=CC=C(C3=CC=CC=C3C4=NN=NN4)C=C2

> <standard_relation>
=

> <Publication_ID>
Krovat_2003

> <predicted_activity_value>
7.221848749616356

> <actual_activity_value>
7.920818753952375

> <Compound>
1

> <standard_units>
nM

> hash
1814020336607191165

$$$$
1_
XXILIB    08252103443D 0   0.00000     0.00000

 33 36  0     1  0            999 V2000
    5.8939   -0.5200   -0.0538 F   0  0  0  0  0  1           0  0  0
    4.9300   -2.1320   -1.1591 F   0  0  0  0  0  1           0  0  0
    4.9626   -2.1684    1.0204 F   0  0  0  0  0  1           0  0  0
    1.6464   -2.9458    1.3070 O   0  0  0  0  0  2           0  0  0
   -5.7104   -0.5388    2.9810 N   0  0  0  0  0  3           0  0  0
   -6.1749    0.5832    3.5135 N   0  0  0  0  0  3           0  0  0
   -4.6577   -0.8734    3.7388 N   0  0  0  0  0  3           0  0  0
   -5.4248    0.9614    4.6029 N   0  0  0  0  0  3           0  0  0
    1.4520    0.0000    0.0000 N   0  0  0  0  0  3           0  0  0
    3.5404    0.7560   -0.0149 N   0  0  0  0  0  3           0  0  0
   -4.4820    0.0490    4.7340 C   0  0  0  0  0  4           0  0  0
    2.2712    1.1119    0.0000 C   0  0  0  0  0  4           0  0  0
    2.2606   -1.1178   -0.0260 C   0  0  0  0  0  4           0  0  0
    3.5494   -0.6156   -0.0328 C   0  0  0  0  0  4           0  0  0
   -3.4344   -0.0133    5.7239 C   0  0  0  0  0  4           0  0  0
   -2.0524   -0.0018    5.4071 C   0  0  0  0  0  4           0  0  0
   -1.5376   -0.0008    4.0436 C   0  0  0  0  0  4           0  0  0
   -0.5420    0.0000    1.3965 C   0  0  0  0  0  4           0  0  0
   -3.8282   -0.0756    7.0753 C   0  0  0  0  0  4           0  0  0
   -1.1221   -0.0284    6.4686 C   0  0  0  0  0  4           0  0  0
   -1.2946    1.2044    3.3682 C   0  0  0  0  0  4           0  0  0
   -1.2694   -1.2056    3.3770 C   0  0  0  0  0  4           0  0  0
   -0.7999    1.2049    2.0610 C   0  0  0  0  0  4           0  0  0
   -0.7753   -1.2052    2.0697 C   0  0  0  0  0  4           0  0  0
   -2.8874   -0.1043    8.1033 C   0  0  0  0  0  4           0  0  0
   -1.5336   -0.0771    7.8002 C   0  0  0  0  0  4           0  0  0
    4.8218   -1.3519   -0.0544 C   0  0  1  0  0  4           0  0  0
    1.7741   -2.5139   -0.0411 C   0  0  0  0  0  4           0  0  0
    0.0000    0.0000    0.0000 C   0  0  0  0  0  4           0  0  0
    1.7905    2.5184    0.0161 C   0  0  0  0  0  4           0  0  0
    2.5581    3.3815    1.0129 C   0  0  0  0  0  4           0  0  0
    2.0732    4.8296    1.0388 C   0  0  0  0  0  4           0  0  0
    2.8360    5.6939    2.0315 C   0  0  0  0  0  4           0  0  0
  1 27  1  0     0  0
  2 27  1  0     0  0
  3 27  1  0     0  0
  4 28  1  0     0  0
  5  6  2  0     0  0
  5  7  1  0     0  0
  6  8  1  0     0  0
  7 11  1  0     0  0
  8 11  2  0     0  0
  9 12  1  0     0  0
  9 13  1  0     0  0
  9 29  1  0     0  0
 10 12  2  0     0  0
 10 14  1  0     0  0
 11 15  1  0     0  0
 12 30  1  0     0  0
 13 14  2  0     0  0
 13 28  1  0     0  0
 14 27  1  0     0  0
 15 16  1  0     0  0
 15 19  2  0     0  0
 16 17  1  0     0  0
 16 20  2  0     0  0
 17 21  2  0     0  0
 17 22  1  0     0  0
 18 23  2  0     0  0
 18 24  1  0     0  0
 18 29  1  0     0  0
 19 25  1  0     0  0
 20 26  1  0     0  0
 21 23  1  0     0  0
 22 24  2  0     0  0
 25 26  2  0     0  0
 30 31  1  0     0  0
 31 32  1  0     0  0
 32 33  1  0     0  0
M  END
> <standard_type>
pIC50

> <# Confs.>
25

> <canonical_smiles>
OCC1=C(C(F)(F)F)N=C(CCCC)N1CC2=CC=C(C3=CC=CC=C3C4=NN=NN4)C=C2

> <standard_relation>
=

> <Publication_ID>
Krovat_2003

> <predicted_activity_value>
7.221848749616356

> <actual_activity_value>
7.920818753952375

> <Compound>
1

> <standard_units>
nM

> hash
1814020336607191165

$$$$
1_
XXILIB    08252103443D 0   0.00000     0.00000

 33 36  0     1  0            999 V2000
    5.8939    0.5200    0.0538 F   0  0  0  0  0  1           0  0  0
    4.9300    2.1320    1.1591 F   0  0  0  0  0  1           0  0  0
    4.9626    2.1684   -1.0204 F   0  0  0  0  0  1           0  0  0
    1.6464    2.9458   -1.3070 O   0  0  0  0  0  2           0  0  0
    1.9479    1.6035    5.9517 N   0  0  0  0  0  3           0  0  0
    2.1980    0.5791    6.7557 N   0  0  0  0  0  3           0  0  0
    0.6184    1.6004    5.7879 N   0  0  0  0  0  3           0  0  0
    1.0370   -0.0724    7.1026 N   0  0  0  0  0  3           0  0  0
    1.4520   -0.0000    0.0000 N   0  0  0  0  0  3           0  0  0
    3.5404   -0.7560    0.0149 N   0  0  0  0  0  3           0  0  0
    0.0596    0.5701    6.4939 C   0  0  0  0  0  4           0  0  0
    2.2712   -1.1119    0.0000 C   0  0  0  0  0  4           0  0  0
    2.2606    1.1178    0.0260 C   0  0  0  0  0  4           0  0  0
    3.5494    0.6156    0.0328 C   0  0  0  0  0  4           0  0  0
   -1.3536    0.2825    6.5304 C   0  0  0  0  0  4           0  0  0
   -2.1219   -0.0291    5.3802 C   0  0  0  0  0  4           0  0  0
   -1.5851   -0.0203    4.0252 C   0  0  0  0  0  4           0  0  0
   -0.5420    0.0000    1.3965 C   0  0  0  0  0  4           0  0  0
   -1.9832    0.3051    7.7907 C   0  0  0  0  0  4           0  0  0
   -3.4906   -0.3301    5.5508 C   0  0  0  0  0  4           0  0  0
   -0.5193   -0.8600    3.6691 C   0  0  0  0  0  4           0  0  0
   -2.1253    0.8253    3.0448 C   0  0  0  0  0  4           0  0  0
   -0.0056   -0.8520    2.3693 C   0  0  0  0  0  4           0  0  0
   -1.6112    0.8337    1.7453 C   0  0  0  0  0  4           0  0  0
   -3.3376    0.0068    7.9292 C   0  0  0  0  0  4           0  0  0
   -4.0911   -0.3145    6.8093 C   0  0  0  0  0  4           0  0  0
    4.8218    1.3519    0.0544 C   0  0  1  0  0  4           0  0  0
    1.7741    2.5139    0.0411 C   0  0  0  0  0  4           0  0  0
    0.0000    0.0000    0.0000 C   0  0  0  0  0  4           0  0  0
    1.7905   -2.5184   -0.0161 C   0  0  0  0  0  4           0  0  0
    2.5581   -3.3815   -1.0129 C   0  0  0  0  0  4           0  0  0
    2.0732   -4.8296   -1.0388 C   0  0  0  0  0  4           0  0  0
    2.8360   -5.6939   -2.0315 C   0  0  0  0  0  4           0  0  0
  1 27  1  0     0  0
  2 27  1  0     0  0
  3 27  1  0     0  0
  4 28  1  0     0  0
  5  6  2  0     0  0
  5  7  1  0     0  0
  6  8  1  0     0  0
  7 11  1  0     0  0
  8 11  2  0     0  0
  9 12  1  0     0  0
  9 13  1  0     0  0
  9 29  1  0     0  0
 10 12  2  0     0  0
 10 14  1  0     0  0
 11 15  1  0     0  0
 12 30  1  0     0  0
 13 14  2  0     0  0
 13 28  1  0     0  0
 14 27  1  0     0  0
 15 16  1  0     0  0
 15 19  2  0     0  0
 16 17  1  0     0  0
 16 20  2  0     0  0
 17 21  2  0     0  0
 17 22  1  0     0  0
 18 23  2  0     0  0
 18 24  1  0     0  0
 18 29  1  0     0  0
 19 25  1  0     0  0
 20 26  1  0     0  0
 21 23  1  0     0  0
 22 24  2  0     0  0
 25 26  2  0     0  0
 30 31  1  0     0  0
 31 32  1  0     0  0
 32 33  1  0     0  0
M  END
> <standard_type>
pIC50

> <# Confs.>
25

> <canonical_smiles>
OCC1=C(C(F)(F)F)N=C(CCCC)N1CC2=CC=C(C3=CC=CC=C3C4=NN=NN4)C=C2

> <standard_relation>
=

> <Publication_ID>
Krovat_2003

> <predicted_activity_value>
7.221848749616356

> <actual_activity_value>
7.920818753952375

> <Compound>
1

> <standard_units>
nM

> hash
1814020336607191165

$$$$
1_
XXILIB    08252103443D 0   0.00000     0.00000

 33 36  0     1  0            999 V2000
    5.8939    0.5200    0.0538 F   0  0  0  0  0  1           0  0  0
    4.9300    2.1320    1.1591 F   0  0  0  0  0  1           0  0  0
    4.9626    2.1684   -1.0204 F   0  0  0  0  0  1           0  0  0
    0.7385    2.6253   -0.9261 O   0  0  0  0  0  2           0  0  0
   -5.4261    1.6728    3.0899 N   0  0  0  0  0  3           0  0  0
   -5.3347    2.7677    3.8324 N   0  0  0  0  0  3           0  0  0
   -4.6867    0.7567    3.7291 N   0  0  0  0  0  3           0  0  0
   -4.5434    2.5519    4.9369 N   0  0  0  0  0  3           0  0  0
    1.4520   -0.0000    0.0000 N   0  0  0  0  0  3           0  0  0
    3.5404   -0.7560    0.0149 N   0  0  0  0  0  3           0  0  0
   -4.1438    1.2975    4.8626 C   0  0  0  0  0  4           0  0  0
    2.2712   -1.1119    0.0000 C   0  0  0  0  0  4           0  0  0
    2.2606    1.1178    0.0260 C   0  0  0  0  0  4           0  0  0
    3.5494    0.6156    0.0328 C   0  0  0  0  0  4           0  0  0
   -3.2917    0.5787    5.7783 C   0  0  0  0  0  4           0  0  0
   -2.0524   -0.0018    5.4071 C   0  0  0  0  0  4           0  0  0
   -1.5376   -0.0008    4.0436 C   0  0  0  0  0  4           0  0  0
   -0.5420    0.0000    1.3965 C   0  0  0  0  0  4           0  0  0
   -3.7278    0.4701    7.1137 C   0  0  0  0  0  4           0  0  0
   -1.2903   -0.6475    6.4047 C   0  0  0  0  0  4           0  0  0
   -1.2946    1.2044    3.3682 C   0  0  0  0  0  4           0  0  0
   -1.2694   -1.2056    3.3770 C   0  0  0  0  0  4           0  0  0
   -0.7999    1.2049    2.0610 C   0  0  0  0  0  4           0  0  0
   -0.7753   -1.2052    2.0697 C   0  0  0  0  0  4           0  0  0
   -2.9559   -0.1765    8.0774 C   0  0  0  0  0  4           0  0  0
   -1.7347   -0.7325    7.7238 C   0  0  0  0  0  4           0  0  0
    4.8218    1.3519    0.0544 C   0  0  1  0  0  4           0  0  0
    1.7741    2.5139    0.0411 C   0  0  0  0  0  4           0  0  0
    0.0000    0.0000   -0.0000 C   0  0  0  0  0  4           0  0  0
    1.7905   -2.5184   -0.0161 C   0  0  0  0  0  4           0  0  0
    2.5581   -3.3815   -1.0129 C   0  0  0  0  0  4           0  0  0
    2.0732   -4.8296   -1.0388 C   0  0  0  0  0  4           0  0  0
    2.8360   -5.6939   -2.0315 C   0  0  0  0  0  4           0  0  0
  1 27  1  0     0  0
  2 27  1  0     0  0
  3 27  1  0     0  0
  4 28  1  0     0  0
  5  6  2  0     0  0
  5  7  1  0     0  0
  6  8  1  0     0  0
  7 11  1  0     0  0
  8 11  2  0     0  0
  9 12  1  0     0  0
  9 13  1  0     0  0
  9 29  1  0     0  0
 10 12  2  0     0  0
 10 14  1  0     0  0
 11 15  1  0     0  0
 12 30  1  0     0  0
 13 14  2  0     0  0
 13 28  1  0     0  0
 14 27  1  0     0  0
 15 16  1  0     0  0
 15 19  2  0     0  0
 16 17  1  0     0  0
 16 20  2  0     0  0
 17 21  2  0     0  0
 17 22  1  0     0  0
 18 23  2  0     0  0
 18 24  1  0     0  0
 18 29  1  0     0  0
 19 25  1  0     0  0
 20 26  1  0     0  0
 21 23  1  0     0  0
 22 24  2  0     0  0
 25 26  2  0     0  0
 30 31  1  0     0  0
 31 32  1  0     0  0
 32 33  1  0     0  0
M  END
> <standard_type>
pIC50

> <# Confs.>
25

> <canonical_smiles>
OCC1=C(C(F)(F)F)N=C(CCCC)N1CC2=CC=C(C3=CC=CC=C3C4=NN=NN4)C=C2

> <standard_relation>
=

> <Publication_ID>
Krovat_2003

> <predicted_activity_value>
7.221848749616356

> <actual_activity_value>
7.920818753952375

> <Compound>
1

> <standard_units>
nM

> hash
1814020336607191165

$$$$
1_
XXILIB    08252103443D 0   0.00000     0.00000

 33 36  0     1  0            999 V2000
    5.8939   -0.5200   -0.0538 F   0  0  0  0  0  1           0  0  0
    4.9300   -2.1320   -1.1591 F   0  0  0  0  0  1           0  0  0
    4.9626   -2.1684    1.0204 F   0  0  0  0  0  1           0  0  0
    1.6464   -2.9458    1.3070 O   0  0  0  0  0  2           0  0  0
    2.2387   -0.8517    6.0636 N   0  0  0  0  0  3           0  0  0
    2.3308    0.3182    6.6810 N   0  0  0  0  0  3           0  0  0
    0.9241   -1.0844    5.9540 N   0  0  0  0  0  3           0  0  0
    1.0847    0.8283    6.9628 N   0  0  0  0  0  3           0  0  0
    1.4520    0.0000    0.0000 N   0  0  0  0  0  3           0  0  0
    3.5404    0.7560   -0.0149 N   0  0  0  0  0  3           0  0  0
    0.2158   -0.0529    6.5076 C   0  0  0  0  0  4           0  0  0
    2.2712    1.1119    0.0000 C   0  0  0  0  0  4           0  0  0
    2.2606   -1.1178   -0.0260 C   0  0  0  0  0  4           0  0  0
    3.5494   -0.6156   -0.0328 C   0  0  0  0  0  4           0  0  0
   -1.2246    0.0086    6.5583 C   0  0  0  0  0  4           0  0  0
   -2.0524   -0.0018    5.4071 C   0  0  0  0  0  4           0  0  0
   -1.5376   -0.0008    4.0436 C   0  0  0  0  0  4           0  0  0
   -0.5420   -0.0000    1.3965 C   0  0  0  0  0  4           0  0  0
   -1.8223    0.0690    7.8328 C   0  0  0  0  0  4           0  0  0
   -3.4521    0.0238    5.5889 C   0  0  0  0  0  4           0  0  0
   -1.2946    1.2044    3.3682 C   0  0  0  0  0  4           0  0  0
   -1.2694   -1.2056    3.3770 C   0  0  0  0  0  4           0  0  0
   -0.7999    1.2049    2.0610 C   0  0  0  0  0  4           0  0  0
   -0.7753   -1.2052    2.0697 C   0  0  0  0  0  4           0  0  0
   -3.2078    0.0968    7.9825 C   0  0  0  0  0  4           0  0  0
   -4.0234    0.0706    6.8602 C   0  0  0  0  0  4           0  0  0
    4.8218   -1.3519   -0.0544 C   0  0  1  0  0  4           0  0  0
    1.7741   -2.5139   -0.0411 C   0  0  0  0  0  4           0  0  0
    0.0000    0.0000    0.0000 C   0  0  0  0  0  4           0  0  0
    1.7905    2.5184    0.0161 C   0  0  0  0  0  4           0  0  0
    2.5369    3.3971   -0.9831 C   0  0  0  0  0  4           0  0  0
    2.3891    2.9124   -2.4239 C   0  0  0  0  0  4           0  0  0
    3.1319    3.7859   -3.4237 C   0  0  0  0  0  4           0  0  0
  1 27  1  0     0  0
  2 27  1  0     0  0
  3 27  1  0     0  0
  4 28  1  0     0  0
  5  6  2  0     0  0
  5  7  1  0     0  0
  6  8  1  0     0  0
  7 11  1  0     0  0
  8 11  2  0     0  0
  9 12  1  0     0  0
  9 13  1  0     0  0
  9 29  1  0     0  0
 10 12  2  0     0  0
 10 14  1  0     0  0
 11 15  1  0     0  0
 12 30  1  0     0  0
 13 14  2  0     0  0
 13 28  1  0     0  0
 14 27  1  0     0  0
 15 16  1  0     0  0
 15 19  2  0     0  0
 16 17  1  0     0  0
 16 20  2  0     0  0
 17 21  2  0     0  0
 17 22  1  0     0  0
 18 23  2  0     0  0
 18 24  1  0     0  0
 18 29  1  0     0  0
 19 25  1  0     0  0
 20 26  1  0     0  0
 21 23  1  0     0  0
 22 24  2  0     0  0
 25 26  2  0     0  0
 30 31  1  0     0  0
 31 32  1  0     0  0
 32 33  1  0     0  0
M  END
> <standard_type>
pIC50

> <# Confs.>
25

> <canonical_smiles>
OCC1=C(C(F)(F)F)N=C(CCCC)N1CC2=CC=C(C3=CC=CC=C3C4=NN=NN4)C=C2

> <standard_relation>
=

> <Publication_ID>
Krovat_2003

> <predicted_activity_value>
7.221848749616356

> <actual_activity_value>
7.920818753952375

> <Compound>
1

> <standard_units>
nM

> hash
1814020336607191165

$$$$
1_
XXILIB    08252103443D 0   0.00000     0.00000

 33 36  0     1  0            999 V2000
    5.8939    0.5200    0.0538 F   0  0  0  0  0  1           0  0  0
    4.9300    2.1320    1.1591 F   0  0  0  0  0  1           0  0  0
    4.9626    2.1684   -1.0204 F   0  0  0  0  0  1           0  0  0
    1.6464    2.9458   -1.3070 O   0  0  0  0  0  2           0  0  0
   -4.2142   -3.4291    3.4781 N   0  0  0  0  0  3           0  0  0
   -5.3592   -2.8136    3.7401 N   0  0  0  0  0  3           0  0  0
   -3.2966   -2.7820    4.2087 N   0  0  0  0  0  3           0  0  0
   -5.1737   -1.7821    4.6312 N   0  0  0  0  0  3           0  0  0
    1.4520   -0.0000    0.0000 N   0  0  0  0  0  3           0  0  0
    3.5404   -0.7560    0.0149 N   0  0  0  0  0  3           0  0  0
   -3.8863   -1.7697    4.9156 C   0  0  0  0  0  4           0  0  0
    2.2712   -1.1119    0.0000 C   0  0  0  0  0  4           0  0  0
    2.2606    1.1178    0.0260 C   0  0  0  0  0  4           0  0  0
    3.5494    0.6156    0.0328 C   0  0  0  0  0  4           0  0  0
   -3.1782   -0.8766    5.8001 C   0  0  0  0  0  4           0  0  0
   -2.1219   -0.0291    5.3802 C   0  0  0  0  0  4           0  0  0
   -1.5851   -0.0203    4.0252 C   0  0  0  0  0  4           0  0  0
   -0.5420    0.0000    1.3965 C   0  0  0  0  0  4           0  0  0
   -3.5832   -0.8514    7.1494 C   0  0  0  0  0  4           0  0  0
   -1.5327    0.8290    6.3338 C   0  0  0  0  0  4           0  0  0
   -0.5193   -0.8600    3.6691 C   0  0  0  0  0  4           0  0  0
   -2.1253    0.8253    3.0448 C   0  0  0  0  0  4           0  0  0
   -0.0056   -0.8520    2.3693 C   0  0  0  0  0  4           0  0  0
   -1.6112    0.8337    1.7453 C   0  0  0  0  0  4           0  0  0
   -2.9810    0.0039    8.0705 C   0  0  0  0  0  4           0  0  0
   -1.9576    0.8473    7.6620 C   0  0  0  0  0  4           0  0  0
    4.8218    1.3519    0.0544 C   0  0  1  0  0  4           0  0  0
    1.7741    2.5139    0.0411 C   0  0  0  0  0  4           0  0  0
    0.0000    0.0000    0.0000 C   0  0  0  0  0  4           0  0  0
    1.7905   -2.5184   -0.0161 C   0  0  0  0  0  4           0  0  0
    2.5581   -3.3815   -1.0129 C   0  0  0  0  0  4           0  0  0
    2.0732   -4.8296   -1.0388 C   0  0  0  0  0  4           0  0  0
    2.8360   -5.6939   -2.0315 C   0  0  0  0  0  4           0  0  0
  1 27  1  0     0  0
  2 27  1  0     0  0
  3 27  1  0     0  0
  4 28  1  0     0  0
  5  6  2  0     0  0
  5  7  1  0     0  0
  6  8  1  0     0  0
  7 11  1  0     0  0
  8 11  2  0     0  0
  9 12  1  0     0  0
  9 13  1  0     0  0
  9 29  1  0     0  0
 10 12  2  0     0  0
 10 14  1  0     0  0
 11 15  1  0     0  0
 12 30  1  0     0  0
 13 14  2  0     0  0
 13 28  1  0     0  0
 14 27  1  0     0  0
 15 16  1  0     0  0
 15 19  2  0     0  0
 16 17  1  0     0  0
 16 20  2  0     0  0
 17 21  2  0     0  0
 17 22  1  0     0  0
 18 23  2  0     0  0
 18 24  1  0     0  0
 18 29  1  0     0  0
 19 25  1  0     0  0
 20 26  1  0     0  0
 21 23  1  0     0  0
 22 24  2  0     0  0
 25 26  2  0     0  0
 30 31  1  0     0  0
 31 32  1  0     0  0
 32 33  1  0     0  0
M  END
> <standard_type>
pIC50

> <# Confs.>
25

> <canonical_smiles>
OCC1=C(C(F)(F)F)N=C(CCCC)N1CC2=CC=C(C3=CC=CC=C3C4=NN=NN4)C=C2

> <standard_relation>
=

> <Publication_ID>
Krovat_2003

> <predicted_activity_value>
7.221848749616356

> <actual_activity_value>
7.920818753952375

> <Compound>
1

> <standard_units>
nM

> hash
1814020336607191165

$$$$
1_
XXILIB    08252103443D 0   0.00000     0.00000

 33 36  0     1  0            999 V2000
    5.8939    0.5200    0.0538 F   0  0  0  0  0  1           0  0  0
    4.9300    2.1320    1.1591 F   0  0  0  0  0  1           0  0  0
    4.9626    2.1684   -1.0204 F   0  0  0  0  0  1           0  0  0
    1.6464    2.9458   -1.3070 O   0  0  0  0  0  2           0  0  0
    1.9479    1.6035    5.9517 N   0  0  0  0  0  3           0  0  0
    2.1980    0.5791    6.7557 N   0  0  0  0  0  3           0  0  0
    0.6184    1.6004    5.7879 N   0  0  0  0  0  3           0  0  0
    1.0370   -0.0724    7.1026 N   0  0  0  0  0  3           0  0  0
    1.4520   -0.0000    0.0000 N   0  0  0  0  0  3           0  0  0
    3.5404   -0.7560    0.0149 N   0  0  0  0  0  3           0  0  0
    0.0596    0.5701    6.4939 C   0  0  0  0  0  4           0  0  0
    2.2712   -1.1119    0.0000 C   0  0  0  0  0  4           0  0  0
    2.2606    1.1178    0.0260 C   0  0  0  0  0  4           0  0  0
    3.5494    0.6156    0.0328 C   0  0  0  0  0  4           0  0  0
   -1.3536    0.2825    6.5304 C   0  0  0  0  0  4           0  0  0
   -2.1219   -0.0291    5.3802 C   0  0  0  0  0  4           0  0  0
   -1.5851   -0.0203    4.0252 C   0  0  0  0  0  4           0  0  0
   -0.5420    0.0000    1.3965 C   0  0  0  0  0  4           0  0  0
   -1.9832    0.3051    7.7907 C   0  0  0  0  0  4           0  0  0
   -3.4906   -0.3301    5.5508 C   0  0  0  0  0  4           0  0  0
   -0.5193   -0.8600    3.6691 C   0  0  0  0  0  4           0  0  0
   -2.1253    0.8253    3.0448 C   0  0  0  0  0  4           0  0  0
   -0.0056   -0.8520    2.3693 C   0  0  0  0  0  4           0  0  0
   -1.6112    0.8337    1.7453 C   0  0  0  0  0  4           0  0  0
   -3.3376    0.0068    7.9292 C   0  0  0  0  0  4           0  0  0
   -4.0911   -0.3145    6.8093 C   0  0  0  0  0  4           0  0  0
    4.8218    1.3519    0.0544 C   0  0  1  0  0  4           0  0  0
    1.7741    2.5139    0.0411 C   0  0  0  0  0  4           0  0  0
    0.0000    0.0000    0.0000 C   0  0  0  0  0  4           0  0  0
    1.7905   -2.5184   -0.0161 C   0  0  0  0  0  4           0  0  0
    2.5581   -3.3815   -1.0129 C   0  0  0  0  0  4           0  0  0
    2.4409   -2.8743   -2.4488 C   0  0  0  0  0  4           0  0  0
    3.2049   -3.7321   -3.4461 C   0  0  0  0  0  4           0  0  0
  1 27  1  0     0  0
  2 27  1  0     0  0
  3 27  1  0     0  0
  4 28  1  0     0  0
  5  6  2  0     0  0
  5  7  1  0     0  0
  6  8  1  0     0  0
  7 11  1  0     0  0
  8 11  2  0     0  0
  9 12  1  0     0  0
  9 13  1  0     0  0
  9 29  1  0     0  0
 10 12  2  0     0  0
 10 14  1  0     0  0
 11 15  1  0     0  0
 12 30  1  0     0  0
 13 14  2  0     0  0
 13 28  1  0     0  0
 14 27  1  0     0  0
 15 16  1  0     0  0
 15 19  2  0     0  0
 16 17  1  0     0  0
 16 20  2  0     0  0
 17 21  2  0     0  0
 17 22  1  0     0  0
 18 23  2  0     0  0
 18 24  1  0     0  0
 18 29  1  0     0  0
 19 25  1  0     0  0
 20 26  1  0     0  0
 21 23  1  0     0  0
 22 24  2  0     0  0
 25 26  2  0     0  0
 30 31  1  0     0  0
 31 32  1  0     0  0
 32 33  1  0     0  0
M  END
> <standard_type>
pIC50

> <# Confs.>
25

> <canonical_smiles>
OCC1=C(C(F)(F)F)N=C(CCCC)N1CC2=CC=C(C3=CC=CC=C3C4=NN=NN4)C=C2

> <standard_relation>
=

> <Publication_ID>
Krovat_2003

> <predicted_activity_value>
7.221848749616356

> <actual_activity_value>
7.920818753952375

> <Compound>
1

> <standard_units>
nM

> hash
1814020336607191165

$$$$
1_
XXILIB    08252103443D 0   0.00000     0.00000

 33 36  0     1  0            999 V2000
    5.8939    0.5200    0.0538 F   0  0  0  0  0  1           0  0  0
    4.9300    2.1320    1.1591 F   0  0  0  0  0  1           0  0  0
    4.9626    2.1684   -1.0204 F   0  0  0  0  0  1           0  0  0
    0.7385    2.6253   -0.9261 O   0  0  0  0  0  2           0  0  0
   -5.4261    1.6728    3.0899 N   0  0  0  0  0  3           0  0  0
   -5.3347    2.7677    3.8324 N   0  0  0  0  0  3           0  0  0
   -4.6867    0.7567    3.7291 N   0  0  0  0  0  3           0  0  0
   -4.5434    2.5519    4.9369 N   0  0  0  0  0  3           0  0  0
    1.4520   -0.0000    0.0000 N   0  0  0  0  0  3           0  0  0
    3.5404   -0.7560    0.0149 N   0  0  0  0  0  3           0  0  0
   -4.1438    1.2975    4.8626 C   0  0  0  0  0  4           0  0  0
    2.2712   -1.1119    0.0000 C   0  0  0  0  0  4           0  0  0
    2.2606    1.1178    0.0260 C   0  0  0  0  0  4           0  0  0
    3.5494    0.6156    0.0328 C   0  0  0  0  0  4           0  0  0
   -3.2917    0.5787    5.7783 C   0  0  0  0  0  4           0  0  0
   -2.0524   -0.0018    5.4071 C   0  0  0  0  0  4           0  0  0
   -1.5376   -0.0008    4.0436 C   0  0  0  0  0  4           0  0  0
   -0.5420    0.0000    1.3965 C   0  0  0  0  0  4           0  0  0
   -3.7278    0.4701    7.1137 C   0  0  0  0  0  4           0  0  0
   -1.2903   -0.6475    6.4047 C   0  0  0  0  0  4           0  0  0
   -1.2946    1.2044    3.3682 C   0  0  0  0  0  4           0  0  0
   -1.2694   -1.2056    3.3770 C   0  0  0  0  0  4           0  0  0
   -0.7999    1.2049    2.0610 C   0  0  0  0  0  4           0  0  0
   -0.7753   -1.2052    2.0697 C   0  0  0  0  0  4           0  0  0
   -2.9559   -0.1765    8.0774 C   0  0  0  0  0  4           0  0  0
   -1.7347   -0.7325    7.7238 C   0  0  0  0  0  4           0  0  0
    4.8218    1.3519    0.0544 C   0  0  1  0  0  4           0  0  0
    1.7741    2.5139    0.0411 C   0  0  0  0  0  4           0  0  0
    0.0000    0.0000   -0.0000 C   0  0  0  0  0  4           0  0  0
    1.7905   -2.5184   -0.0161 C   0  0  0  0  0  4           0  0  0
    2.5581   -3.3815   -1.0129 C   0  0  0  0  0  4           0  0  0
    2.4409   -2.8743   -2.4488 C   0  0  0  0  0  4           0  0  0
    3.2049   -3.7321   -3.4461 C   0  0  0  0  0  4           0  0  0
  1 27  1  0     0  0
  2 27  1  0     0  0
  3 27  1  0     0  0
  4 28  1  0     0  0
  5  6  2  0     0  0
  5  7  1  0     0  0
  6  8  1  0     0  0
  7 11  1  0     0  0
  8 11  2  0     0  0
  9 12  1  0     0  0
  9 13  1  0     0  0
  9 29  1  0     0  0
 10 12  2  0     0  0
 10 14  1  0     0  0
 11 15  1  0     0  0
 12 30  1  0     0  0
 13 14  2  0     0  0
 13 28  1  0     0  0
 14 27  1  0     0  0
 15 16  1  0     0  0
 15 19  2  0     0  0
 16 17  1  0     0  0
 16 20  2  0     0  0
 17 21  2  0     0  0
 17 22  1  0     0  0
 18 23  2  0     0  0
 18 24  1  0     0  0
 18 29  1  0     0  0
 19 25  1  0     0  0
 20 26  1  0     0  0
 21 23  1  0     0  0
 22 24  2  0     0  0
 25 26  2  0     0  0
 30 31  1  0     0  0
 31 32  1  0     0  0
 32 33  1  0     0  0
M  END
> <standard_type>
pIC50

> <# Confs.>
25

> <canonical_smiles>
OCC1=C(C(F)(F)F)N=C(CCCC)N1CC2=CC=C(C3=CC=CC=C3C4=NN=NN4)C=C2

> <standard_relation>
=

> <Publication_ID>
Krovat_2003

> <predicted_activity_value>
7.221848749616356

> <actual_activity_value>
7.920818753952375

> <Compound>
1

> <standard_units>
nM

> hash
1814020336607191165

$$$$
1_
XXILIB    08252103443D 0   0.00000     0.00000

 33 36  0     1  0            999 V2000
    5.8939    0.5200    0.0538 F   0  0  0  0  0  1           0  0  0
    4.9300    2.1320    1.1591 F   0  0  0  0  0  1           0  0  0
    4.9626    2.1684   -1.0204 F   0  0  0  0  0  1           0  0  0
    1.6464    2.9458   -1.3070 O   0  0  0  0  0  2           0  0  0
   -4.2142   -3.4291    3.4781 N   0  0  0  0  0  3           0  0  0
   -5.3592   -2.8136    3.7401 N   0  0  0  0  0  3           0  0  0
   -3.2966   -2.7820    4.2087 N   0  0  0  0  0  3           0  0  0
   -5.1737   -1.7821    4.6312 N   0  0  0  0  0  3           0  0  0
    1.4520   -0.0000    0.0000 N   0  0  0  0  0  3           0  0  0
    3.5404   -0.7560    0.0149 N   0  0  0  0  0  3           0  0  0
   -3.8863   -1.7697    4.9156 C   0  0  0  0  0  4           0  0  0
    2.2712   -1.1119    0.0000 C   0  0  0  0  0  4           0  0  0
    2.2606    1.1178    0.0260 C   0  0  0  0  0  4           0  0  0
    3.5494    0.6156    0.0328 C   0  0  0  0  0  4           0  0  0
   -3.1782   -0.8766    5.8001 C   0  0  0  0  0  4           0  0  0
   -2.1219   -0.0291    5.3802 C   0  0  0  0  0  4           0  0  0
   -1.5851   -0.0203    4.0252 C   0  0  0  0  0  4           0  0  0
   -0.5420    0.0000    1.3965 C   0  0  0  0  0  4           0  0  0
   -3.5832   -0.8514    7.1494 C   0  0  0  0  0  4           0  0  0
   -1.5327    0.8290    6.3338 C   0  0  0  0  0  4           0  0  0
   -0.5193   -0.8600    3.6691 C   0  0  0  0  0  4           0  0  0
   -2.1253    0.8253    3.0448 C   0  0  0  0  0  4           0  0  0
   -0.0056   -0.8520    2.3693 C   0  0  0  0  0  4           0  0  0
   -1.6112    0.8337    1.7453 C   0  0  0  0  0  4           0  0  0
   -2.9810    0.0039    8.0705 C   0  0  0  0  0  4           0  0  0
   -1.9576    0.8473    7.6620 C   0  0  0  0  0  4           0  0  0
    4.8218    1.3519    0.0544 C   0  0  1  0  0  4           0  0  0
    1.7741    2.5139    0.0411 C   0  0  0  0  0  4           0  0  0
    0.0000    0.0000    0.0000 C   0  0  0  0  0  4           0  0  0
    1.7905   -2.5184   -0.0161 C   0  0  0  0  0  4           0  0  0
    2.5581   -3.3815   -1.0129 C   0  0  0  0  0  4           0  0  0
    2.4409   -2.8743   -2.4488 C   0  0  0  0  0  4           0  0  0
    3.2049   -3.7321   -3.4461 C   0  0  0  0  0  4           0  0  0
  1 27  1  0     0  0
  2 27  1  0     0  0
  3 27  1  0     0  0
  4 28  1  0     0  0
  5  6  2  0     0  0
  5  7  1  0     0  0
  6  8  1  0     0  0
  7 11  1  0     0  0
  8 11  2  0     0  0
  9 12  1  0     0  0
  9 13  1  0     0  0
  9 29  1  0     0  0
 10 12  2  0     0  0
 10 14  1  0     0  0
 11 15  1  0     0  0
 12 30  1  0     0  0
 13 14  2  0     0  0
 13 28  1  0     0  0
 14 27  1  0     0  0
 15 16  1  0     0  0
 15 19  2  0     0  0
 16 17  1  0     0  0
 16 20  2  0     0  0
 17 21  2  0     0  0
 17 22  1  0     0  0
 18 23  2  0     0  0
 18 24  1  0     0  0
 18 29  1  0     0  0
 19 25  1  0     0  0
 20 26  1  0     0  0
 21 23  1  0     0  0
 22 24  2  0     0  0
 25 26  2  0     0  0
 30 31  1  0     0  0
 31 32  1  0     0  0
 32 33  1  0     0  0
M  END
> <standard_type>
pIC50

> <# Confs.>
25

> <canonical_smiles>
OCC1=C(C(F)(F)F)N=C(CCCC)N1CC2=CC=C(C3=CC=CC=C3C4=NN=NN4)C=C2

> <standard_relation>
=

> <Publication_ID>
Krovat_2003

> <predicted_activity_value>
7.221848749616356

> <actual_activity_value>
7.920818753952375

> <Compound>
1

> <standard_units>
nM

> hash
1814020336607191165

$$$$
10_
XXILIB    08252103443D 0   0.00000     0.00000

 28 30  0     1  0            999 V2000
    5.0174   -1.4738    0.0638 Cl  0  0  0  0  0  1           0  0  0
    0.8402   -1.0452    6.0072 O   0  0  0  0  0  2           0  0  0
    1.1469   -3.0051   -0.8571 O   0  0  0  0  0  2           0  0  0
    0.8175    0.9682    7.0761 O   0  0  0  0  0  2           0  0  0
    1.4526    0.0000   -0.0000 N   0  0  0  0  0  3           0  0  0
    3.5362    0.7636    0.0243 N   0  0  0  0  0  3           0  0  0
    3.5476   -0.6067    0.0388 C   0  0  0  0  0  4           0  0  0
    2.2673    1.1150    0.0000 C   0  0  0  0  0  4           0  0  0
    2.2620   -1.1225    0.0230 C   0  0  0  0  0  4           0  0  0
   -2.0534    0.0028    5.4200 C   0  0  0  0  0  4           0  0  0
   -1.5335    0.0015    4.0456 C   0  0  0  0  0  4           0  0  0
   -1.2318   -0.0089    6.5696 C   0  0  0  0  0  4           0  0  0
   -0.5423    0.0000    1.3965 C   0  0  0  0  0  4           0  0  0
   -3.4468    0.0534    5.6299 C   0  0  0  0  0  4           0  0  0
   -1.2917   -1.2040    3.3703 C   0  0  0  0  0  4           0  0  0
   -1.2664    1.2059    3.3782 C   0  0  0  0  0  4           0  0  0
   -1.7794    0.0663    7.8589 C   0  0  0  0  0  4           0  0  0
   -0.8005   -1.2048    2.0615 C   0  0  0  0  0  4           0  0  0
   -0.7741    1.2054    2.0700 C   0  0  0  0  0  4           0  0  0
   -3.9928    0.1154    6.9155 C   0  0  0  0  0  4           0  0  0
   -3.1593    0.1281    8.0281 C   0  0  0  0  0  4           0  0  0
    0.2363   -0.1109    6.5061 C   0  0  0  0  0  4           0  0  0
    1.8272   -2.4870    0.0227 C   0  0  0  0  0  4           0  0  0
   -0.0000    0.0000    0.0000 C   0  0  0  0  0  4           0  0  0
    1.7835    2.5224   -0.0227 C   0  0  0  0  0  4           0  0  0
    2.0712    4.8117   -1.0494 C   0  0  0  0  0  4           0  0  0
    1.5779    5.4097   -2.1395 C   0  0  0  0  0  4           0  0  0
    2.5519    3.3902   -1.0191 C   0  0  0  0  0  4           0  0  0
  1  7  1  0     0  0
  2 22  2  0     0  0
  3 23  2  0     0  0
  4 22  1  0     0  0
  5  8  1  0     0  0
  5  9  1  0     0  0
  5 24  1  0     0  0
  6  7  1  0     0  0
  6  8  2  0     0  0
  7  9  2  0     0  0
  8 25  1  0     0  0
  9 23  1  0     0  0
 10 11  1  0     0  0
 10 12  1  0     0  0
 10 14  2  0     0  0
 11 15  2  0     0  0
 11 16  1  0     0  0
 12 17  2  0     0  0
 12 22  1  0     0  0
 13 18  2  0     0  0
 13 19  1  0     0  0
 13 24  1  0     0  0
 14 20  1  0     0  0
 15 18  1  0     0  0
 16 19  2  0     0  0
 17 21  1  0     0  0
 20 21  2  0     0  0
 25 28  1  0     0  0
 26 27  2  0     0  0
 26 28  1  0     0  0
M  END
> <standard_type>
pIC50

> <# Confs.>
25

> <canonical_smiles>
ClC(N=C1CCC=C)=C(C=O)N1CC2=CC=C(C3=CC=CC=C3C(O)=O)C=C2

> <standard_relation>
=

> <Publication_ID>
nan

> <predicted_activity_value>
6.853871964321762

> <actual_activity_value>
6.638272163982407

> <Compound>
10

> <standard_units>
nM

> hash
10268325833990702466

$$$$
10_
XXILIB    08252103443D 0   0.00000     0.00000

 28 30  0     1  0            999 V2000
    5.0174   -1.4738    0.0638 Cl  0  0  0  0  0  1           0  0  0
   -4.6106    1.0499    3.9433 O   0  0  0  0  0  2           0  0  0
    1.1469   -3.0051   -0.8571 O   0  0  0  0  0  2           0  0  0
   -5.3023   -0.9616    4.7630 O   0  0  0  0  0  2           0  0  0
    1.4526    0.0000   -0.0000 N   0  0  0  0  0  3           0  0  0
    3.5362    0.7636    0.0243 N   0  0  0  0  0  3           0  0  0
    3.5476   -0.6067    0.0388 C   0  0  0  0  0  4           0  0  0
    2.2673    1.1150    0.0000 C   0  0  0  0  0  4           0  0  0
    2.2620   -1.1225    0.0230 C   0  0  0  0  0  4           0  0  0
   -2.0534    0.0028    5.4200 C   0  0  0  0  0  4           0  0  0
   -1.5335    0.0015    4.0456 C   0  0  0  0  0  4           0  0  0
   -3.4302    0.0159    5.7379 C   0  0  0  0  0  4           0  0  0
   -0.5423    0.0000    1.3965 C   0  0  0  0  0  4           0  0  0
   -1.1479   -0.0466    6.4996 C   0  0  0  0  0  4           0  0  0
   -1.2917   -1.2040    3.3703 C   0  0  0  0  0  4           0  0  0
   -1.2664    1.2059    3.3782 C   0  0  0  0  0  4           0  0  0
   -3.8731   -0.0567    7.0670 C   0  0  0  0  0  4           0  0  0
   -0.8005   -1.2048    2.0615 C   0  0  0  0  0  4           0  0  0
   -0.7741    1.2054    2.0700 C   0  0  0  0  0  4           0  0  0
   -1.5895   -0.1061    7.8248 C   0  0  0  0  0  4           0  0  0
   -2.9507   -0.1174    8.1072 C   0  0  0  0  0  4           0  0  0
   -4.4887    0.1168    4.7186 C   0  0  0  0  0  4           0  0  0
    1.8272   -2.4870    0.0227 C   0  0  0  0  0  4           0  0  0
   -0.0000    0.0000    0.0000 C   0  0  0  0  0  4           0  0  0
    1.7835    2.5224   -0.0227 C   0  0  0  0  0  4           0  0  0
    2.0712    4.8117   -1.0494 C   0  0  0  0  0  4           0  0  0
    1.5779    5.4097   -2.1395 C   0  0  0  0  0  4           0  0  0
    2.5519    3.3902   -1.0191 C   0  0  0  0  0  4           0  0  0
  1  7  1  0     0  0
  2 22  2  0     0  0
  3 23  2  0     0  0
  4 22  1  0     0  0
  5  8  1  0     0  0
  5  9  1  0     0  0
  5 24  1  0     0  0
  6  7  1  0     0  0
  6  8  2  0     0  0
  7  9  2  0     0  0
  8 25  1  0     0  0
  9 23  1  0     0  0
 10 11  1  0     0  0
 10 12  1  0     0  0
 10 14  2  0     0  0
 11 15  2  0     0  0
 11 16  1  0     0  0
 12 17  2  0     0  0
 12 22  1  0     0  0
 13 18  2  0     0  0
 13 19  1  0     0  0
 13 24  1  0     0  0
 14 20  1  0     0  0
 15 18  1  0     0  0
 16 19  2  0     0  0
 17 21  1  0     0  0
 20 21  2  0     0  0
 25 28  1  0     0  0
 26 27  2  0     0  0
 26 28  1  0     0  0
M  END
> <standard_type>
pIC50

> <# Confs.>
25

> <canonical_smiles>
ClC(N=C1CCC=C)=C(C=O)N1CC2=CC=C(C3=CC=CC=C3C(O)=O)C=C2

> <standard_relation>
=

> <Publication_ID>
nan

> <predicted_activity_value>
6.853871964321762

> <actual_activity_value>
6.638272163982407

> <Compound>
10

> <standard_units>
nM

> hash
10268325833990702466

$$$$
10_
XXILIB    08252103443D 0   0.00000     0.00000

 28 30  0     1  0            999 V2000
    5.0174   -1.4738    0.0638 Cl  0  0  0  0  0  1           0  0  0
   -4.2140   -2.3303    4.4726 O   0  0  0  0  0  2           0  0  0
    1.1469   -3.0051   -0.8571 O   0  0  0  0  0  2           0  0  0
   -5.0941   -0.2301    4.3656 O   0  0  0  0  0  2           0  0  0
    1.4526    0.0000   -0.0000 N   0  0  0  0  0  3           0  0  0
    3.5362    0.7636    0.0243 N   0  0  0  0  0  3           0  0  0
    3.5476   -0.6067    0.0388 C   0  0  0  0  0  4           0  0  0
    2.2673    1.1150    0.0000 C   0  0  0  0  0  4           0  0  0
    2.2620   -1.1225    0.0230 C   0  0  0  0  0  4           0  0  0
   -2.0534    0.0028    5.4200 C   0  0  0  0  0  4           0  0  0
   -1.5335    0.0015    4.0456 C   0  0  0  0  0  4           0  0  0
   -3.2890   -0.5734    5.7919 C   0  0  0  0  0  4           0  0  0
   -0.5423    0.0000    1.3965 C   0  0  0  0  0  4           0  0  0
   -1.2783    0.5746    6.4497 C   0  0  0  0  0  4           0  0  0
   -1.2917   -1.2040    3.3703 C   0  0  0  0  0  4           0  0  0
   -1.2664    1.2059    3.3782 C   0  0  0  0  0  4           0  0  0
   -3.7043   -0.6081    7.1314 C   0  0  0  0  0  4           0  0  0
   -0.8005   -1.2048    2.0615 C   0  0  0  0  0  4           0  0  0
   -0.7741    1.2054    2.0700 C   0  0  0  0  0  4           0  0  0
   -1.6985    0.5512    7.7829 C   0  0  0  0  0  4           0  0  0
   -2.9072   -0.0452    8.1236 C   0  0  0  0  0  4           0  0  0
   -4.2258   -1.1614    4.8192 C   0  0  0  0  0  4           0  0  0
    1.8272   -2.4870    0.0227 C   0  0  0  0  0  4           0  0  0
   -0.0000    0.0000    0.0000 C   0  0  0  0  0  4           0  0  0
    1.7835    2.5224   -0.0227 C   0  0  0  0  0  4           0  0  0
    2.0712    4.8117   -1.0494 C   0  0  0  0  0  4           0  0  0
    1.5779    5.4097   -2.1395 C   0  0  0  0  0  4           0  0  0
    2.5519    3.3902   -1.0191 C   0  0  0  0  0  4           0  0  0
  1  7  1  0     0  0
  2 22  2  0     0  0
  3 23  2  0     0  0
  4 22  1  0     0  0
  5  8  1  0     0  0
  5  9  1  0     0  0
  5 24  1  0     0  0
  6  7  1  0     0  0
  6  8  2  0     0  0
  7  9  2  0     0  0
  8 25  1  0     0  0
  9 23  1  0     0  0
 10 11  1  0     0  0
 10 12  1  0     0  0
 10 14  2  0     0  0
 11 15  2  0     0  0
 11 16  1  0     0  0
 12 17  2  0     0  0
 12 22  1  0     0  0
 13 18  2  0     0  0
 13 19  1  0     0  0
 13 24  1  0     0  0
 14 20  1  0     0  0
 15 18  1  0     0  0
 16 19  2  0     0  0
 17 21  1  0     0  0
 20 21  2  0     0  0
 25 28  1  0     0  0
 26 27  2  0     0  0
 26 28  1  0     0  0
M  END
> <standard_type>
pIC50

> <# Confs.>
25

> <canonical_smiles>
ClC(N=C1CCC=C)=C(C=O)N1CC2=CC=C(C3=CC=CC=C3C(O)=O)C=C2

> <standard_relation>
=

> <Publication_ID>
nan

> <predicted_activity_value>
6.853871964321762

> <actual_activity_value>
6.638272163982407

> <Compound>
10

> <standard_units>
nM

> hash
10268325833990702466

$$$$
10_
XXILIB    08252103443D 0   0.00000     0.00000

 28 30  0     1  0            999 V2000
    5.0174    1.4738   -0.0638 Cl  0  0  0  0  0  1           0  0  0
    0.9580    0.6929    5.9408 O   0  0  0  0  0  2           0  0  0
    1.1225    2.9977   -0.8874 O   0  0  0  0  0  2           0  0  0
    0.6694   -1.2139    7.1563 O   0  0  0  0  0  2           0  0  0
    1.4526   -0.0000   -0.0000 N   0  0  0  0  0  3           0  0  0
    3.5362   -0.7636   -0.0243 N   0  0  0  0  0  3           0  0  0
    3.5476    0.6067   -0.0388 C   0  0  0  0  0  4           0  0  0
    2.2673   -1.1150   -0.0000 C   0  0  0  0  0  4           0  0  0
    2.2620    1.1225   -0.0230 C   0  0  0  0  0  4           0  0  0
   -2.0534    0.0028    5.4200 C   0  0  0  0  0  4           0  0  0
   -1.5335    0.0015    4.0456 C   0  0  0  0  0  4           0  0  0
   -1.2318   -0.0089    6.5696 C   0  0  0  0  0  4           0  0  0
   -0.5423    0.0000    1.3965 C   0  0  0  0  0  4           0  0  0
   -3.4468    0.0534    5.6299 C   0  0  0  0  0  4           0  0  0
   -1.2917   -1.2040    3.3703 C   0  0  0  0  0  4           0  0  0
   -1.2664    1.2059    3.3782 C   0  0  0  0  0  4           0  0  0
   -1.7794    0.0663    7.8589 C   0  0  0  0  0  4           0  0  0
   -0.8005   -1.2048    2.0615 C   0  0  0  0  0  4           0  0  0
   -0.7741    1.2054    2.0700 C   0  0  0  0  0  4           0  0  0
   -3.9928    0.1154    6.9155 C   0  0  0  0  0  4           0  0  0
   -3.1593    0.1281    8.0281 C   0  0  0  0  0  4           0  0  0
    0.2363   -0.1109    6.5061 C   0  0  0  0  0  4           0  0  0
    1.8272    2.4870   -0.0227 C   0  0  0  0  0  4           0  0  0
   -0.0000    0.0000    0.0000 C   0  0  0  0  0  4           0  0  0
    1.7835   -2.5224    0.0227 C   0  0  0  0  0  4           0  0  0
    2.0409   -4.8338   -0.9616 C   0  0  0  0  0  4           0  0  0
    1.5153   -5.4554   -2.0229 C   0  0  0  0  0  4           0  0  0
    2.5219   -3.4121   -0.9770 C   0  0  0  0  0  4           0  0  0
  1  7  1  0     0  0
  2 22  2  0     0  0
  3 23  2  0     0  0
  4 22  1  0     0  0
  5  8  1  0     0  0
  5  9  1  0     0  0
  5 24  1  0     0  0
  6  7  1  0     0  0
  6  8  2  0     0  0
  7  9  2  0     0  0
  8 25  1  0     0  0
  9 23  1  0     0  0
 10 11  1  0     0  0
 10 12  1  0     0  0
 10 14  2  0     0  0
 11 15  2  0     0  0
 11 16  1  0     0  0
 12 17  2  0     0  0
 12 22  1  0     0  0
 13 18  2  0     0  0
 13 19  1  0     0  0
 13 24  1  0     0  0
 14 20  1  0     0  0
 15 18  1  0     0  0
 16 19  2  0     0  0
 17 21  1  0     0  0
 20 21  2  0     0  0
 25 28  1  0     0  0
 26 27  2  0     0  0
 26 28  1  0     0  0
M  END
> <standard_type>
pIC50

> <# Confs.>
25

> <canonical_smiles>
ClC(N=C1CCC=C)=C(C=O)N1CC2=CC=C(C3=CC=CC=C3C(O)=O)C=C2

> <standard_relation>
=

> <Publication_ID>
nan

> <predicted_activity_value>
6.853871964321762

> <actual_activity_value>
6.638272163982407

> <Compound>
10

> <standard_units>
nM

> hash
10268325833990702466

$$$$
10_
XXILIB    08252103443D 0   0.00000     0.00000

 28 30  0     1  0            999 V2000
    5.0174    1.4738   -0.0638 Cl  0  0  0  0  0  1           0  0  0
   -0.0804   -2.5593    6.1627 O   0  0  0  0  0  2           0  0  0
    1.1225    2.9977   -0.8874 O   0  0  0  0  0  2           0  0  0
    0.9405   -0.5482    6.4938 O   0  0  0  0  0  2           0  0  0
    1.4526   -0.0000   -0.0000 N   0  0  0  0  0  3           0  0  0
    3.5362   -0.7636   -0.0243 N   0  0  0  0  0  3           0  0  0
    3.5476    0.6067   -0.0388 C   0  0  0  0  0  4           0  0  0
    2.2673   -1.1150   -0.0000 C   0  0  0  0  0  4           0  0  0
    2.2620    1.1225   -0.0230 C   0  0  0  0  0  4           0  0  0
   -2.0534    0.0028    5.4200 C   0  0  0  0  0  4           0  0  0
   -1.5335    0.0015    4.0456 C   0  0  0  0  0  4           0  0  0
   -1.3851   -0.5949    6.5122 C   0  0  0  0  0  4           0  0  0
   -0.5423    0.0000    1.3965 C   0  0  0  0  0  4           0  0  0
   -3.2692    0.6612    5.6965 C   0  0  0  0  0  4           0  0  0
   -1.2917   -1.2040    3.3703 C   0  0  0  0  0  4           0  0  0
   -1.2664    1.2059    3.3782 C   0  0  0  0  0  4           0  0  0
   -1.8911   -0.5016    7.8172 C   0  0  0  0  0  4           0  0  0
   -0.8005   -1.2048    2.0615 C   0  0  0  0  0  4           0  0  0
   -0.7741    1.2054    2.0700 C   0  0  0  0  0  4           0  0  0
   -3.7798    0.7430    6.9954 C   0  0  0  0  0  4           0  0  0
   -3.0879    0.1674    8.0550 C   0  0  0  0  0  4           0  0  0
   -0.1339   -1.3586    6.3673 C   0  0  0  0  0  4           0  0  0
    1.8272    2.4870   -0.0227 C   0  0  0  0  0  4           0  0  0
   -0.0000    0.0000    0.0000 C   0  0  0  0  0  4           0  0  0
    1.7835   -2.5224    0.0227 C   0  0  0  0  0  4           0  0  0
    2.0409   -4.8338   -0.9616 C   0  0  0  0  0  4           0  0  0
    1.5153   -5.4554   -2.0229 C   0  0  0  0  0  4           0  0  0
    2.5219   -3.4121   -0.9770 C   0  0  0  0  0  4           0  0  0
  1  7  1  0     0  0
  2 22  2  0     0  0
  3 23  2  0     0  0
  4 22  1  0     0  0
  5  8  1  0     0  0
  5  9  1  0     0  0
  5 24  1  0     0  0
  6  7  1  0     0  0
  6  8  2  0     0  0
  7  9  2  0     0  0
  8 25  1  0     0  0
  9 23  1  0     0  0
 10 11  1  0     0  0
 10 12  1  0     0  0
 10 14  2  0     0  0
 11 15  2  0     0  0
 11 16  1  0     0  0
 12 17  2  0     0  0
 12 22  1  0     0  0
 13 18  2  0     0  0
 13 19  1  0     0  0
 13 24  1  0     0  0
 14 20  1  0     0  0
 15 18  1  0     0  0
 16 19  2  0     0  0
 17 21  1  0     0  0
 20 21  2  0     0  0
 25 28  1  0     0  0
 26 27  2  0     0  0
 26 28  1  0     0  0
M  END
> <standard_type>
pIC50

> <# Confs.>
25

> <canonical_smiles>
ClC(N=C1CCC=C)=C(C=O)N1CC2=CC=C(C3=CC=CC=C3C(O)=O)C=C2

> <standard_relation>
=

> <Publication_ID>
nan

> <predicted_activity_value>
6.853871964321762

> <actual_activity_value>
6.638272163982407

> <Compound>
10

> <standard_units>
nM

> hash
10268325833990702466

$$$$
10_
XXILIB    08252103443D 0   0.00000     0.00000

 28 30  0     1  0            999 V2000
    5.0174    1.4738   -0.0638 Cl  0  0  0  0  0  1           0  0  0
   -4.6106    1.0499    3.9433 O   0  0  0  0  0  2           0  0  0
    1.1225    2.9977   -0.8874 O   0  0  0  0  0  2           0  0  0
   -5.3023   -0.9616    4.7630 O   0  0  0  0  0  2           0  0  0
    1.4526   -0.0000   -0.0000 N   0  0  0  0  0  3           0  0  0
    3.5362   -0.7636   -0.0243 N   0  0  0  0  0  3           0  0  0
    3.5476    0.6067   -0.0388 C   0  0  0  0  0  4           0  0  0
    2.2673   -1.1150   -0.0000 C   0  0  0  0  0  4           0  0  0
    2.2620    1.1225   -0.0230 C   0  0  0  0  0  4           0  0  0
   -2.0534    0.0028    5.4200 C   0  0  0  0  0  4           0  0  0
   -1.5335    0.0015    4.0456 C   0  0  0  0  0  4           0  0  0
   -3.4302    0.0159    5.7379 C   0  0  0  0  0  4           0  0  0
   -0.5423    0.0000    1.3965 C   0  0  0  0  0  4           0  0  0
   -1.1479   -0.0466    6.4996 C   0  0  0  0  0  4           0  0  0
   -1.2917   -1.2040    3.3703 C   0  0  0  0  0  4           0  0  0
   -1.2664    1.2059    3.3782 C   0  0  0  0  0  4           0  0  0
   -3.8731   -0.0567    7.0670 C   0  0  0  0  0  4           0  0  0
   -0.8005   -1.2048    2.0615 C   0  0  0  0  0  4           0  0  0
   -0.7741    1.2054    2.0700 C   0  0  0  0  0  4           0  0  0
   -1.5895   -0.1061    7.8248 C   0  0  0  0  0  4           0  0  0
   -2.9507   -0.1174    8.1072 C   0  0  0  0  0  4           0  0  0
   -4.4887    0.1168    4.7186 C   0  0  0  0  0  4           0  0  0
    1.8272    2.4870   -0.0227 C   0  0  0  0  0  4           0  0  0
   -0.0000    0.0000    0.0000 C   0  0  0  0  0  4           0  0  0
    1.7835   -2.5224    0.0227 C   0  0  0  0  0  4           0  0  0
    2.0409   -4.8338   -0.9616 C   0  0  0  0  0  4           0  0  0
    1.5153   -5.4554   -2.0229 C   0  0  0  0  0  4           0  0  0
    2.5219   -3.4121   -0.9770 C   0  0  0  0  0  4           0  0  0
  1  7  1  0     0  0
  2 22  2  0     0  0
  3 23  2  0     0  0
  4 22  1  0     0  0
  5  8  1  0     0  0
  5  9  1  0     0  0
  5 24  1  0     0  0
  6  7  1  0     0  0
  6  8  2  0     0  0
  7  9  2  0     0  0
  8 25  1  0     0  0
  9 23  1  0     0  0
 10 11  1  0     0  0
 10 12  1  0     0  0
 10 14  2  0     0  0
 11 15  2  0     0  0
 11 16  1  0     0  0
 12 17  2  0     0  0
 12 22  1  0     0  0
 13 18  2  0     0  0
 13 19  1  0     0  0
 13 24  1  0     0  0
 14 20  1  0     0  0
 15 18  1  0     0  0
 16 19  2  0     0  0
 17 21  1  0     0  0
 20 21  2  0     0  0
 25 28  1  0     0  0
 26 27  2  0     0  0
 26 28  1  0     0  0
M  END
> <standard_type>
pIC50

> <# Confs.>
25

> <canonical_smiles>
ClC(N=C1CCC=C)=C(C=O)N1CC2=CC=C(C3=CC=CC=C3C(O)=O)C=C2

> <standard_relation>
=

> <Publication_ID>
nan

> <predicted_activity_value>
6.853871964321762

> <actual_activity_value>
6.638272163982407

> <Compound>
10

> <standard_units>
nM

> hash
10268325833990702466

$$$$
10_
XXILIB    08252103443D 0   0.00000     0.00000

 28 30  0     1  0            999 V2000
    5.0174    1.4738   -0.0638 Cl  0  0  0  0  0  1           0  0  0
   -4.2140   -2.3303    4.4726 O   0  0  0  0  0  2           0  0  0
    1.1225    2.9977   -0.8874 O   0  0  0  0  0  2           0  0  0
   -5.0941   -0.2301    4.3656 O   0  0  0  0  0  2           0  0  0
    1.4526   -0.0000   -0.0000 N   0  0  0  0  0  3           0  0  0
    3.5362   -0.7636   -0.0243 N   0  0  0  0  0  3           0  0  0
    3.5476    0.6067   -0.0388 C   0  0  0  0  0  4           0  0  0
    2.2673   -1.1150   -0.0000 C   0  0  0  0  0  4           0  0  0
    2.2620    1.1225   -0.0230 C   0  0  0  0  0  4           0  0  0
   -2.0534    0.0028    5.4200 C   0  0  0  0  0  4           0  0  0
   -1.5335    0.0015    4.0456 C   0  0  0  0  0  4           0  0  0
   -3.2890   -0.5734    5.7919 C   0  0  0  0  0  4           0  0  0
   -0.5423    0.0000    1.3965 C   0  0  0  0  0  4           0  0  0
   -1.2783    0.5746    6.4497 C   0  0  0  0  0  4           0  0  0
   -1.2917   -1.2040    3.3703 C   0  0  0  0  0  4           0  0  0
   -1.2664    1.2059    3.3782 C   0  0  0  0  0  4           0  0  0
   -3.7043   -0.6081    7.1314 C   0  0  0  0  0  4           0  0  0
   -0.8005   -1.2048    2.0615 C   0  0  0  0  0  4           0  0  0
   -0.7741    1.2054    2.0700 C   0  0  0  0  0  4           0  0  0
   -1.6985    0.5512    7.7829 C   0  0  0  0  0  4           0  0  0
   -2.9072   -0.0452    8.1236 C   0  0  0  0  0  4           0  0  0
   -4.2258   -1.1614    4.8192 C   0  0  0  0  0  4           0  0  0
    1.8272    2.4870   -0.0227 C   0  0  0  0  0  4           0  0  0
   -0.0000    0.0000    0.0000 C   0  0  0  0  0  4           0  0  0
    1.7835   -2.5224    0.0227 C   0  0  0  0  0  4           0  0  0
    2.0409   -4.8338   -0.9616 C   0  0  0  0  0  4           0  0  0
    1.5153   -5.4554   -2.0229 C   0  0  0  0  0  4           0  0  0
    2.5219   -3.4121   -0.9770 C   0  0  0  0  0  4           0  0  0
  1  7  1  0     0  0
  2 22  2  0     0  0
  3 23  2  0     0  0
  4 22  1  0     0  0
  5  8  1  0     0  0
  5  9  1  0     0  0
  5 24  1  0     0  0
  6  7  1  0     0  0
  6  8  2  0     0  0
  7  9  2  0     0  0
  8 25  1  0     0  0
  9 23  1  0     0  0
 10 11  1  0     0  0
 10 12  1  0     0  0
 10 14  2  0     0  0
 11 15  2  0     0  0
 11 16  1  0     0  0
 12 17  2  0     0  0
 12 22  1  0     0  0
 13 18  2  0     0  0
 13 19  1  0     0  0
 13 24  1  0     0  0
 14 20  1  0     0  0
 15 18  1  0     0  0
 16 19  2  0     0  0
 17 21  1  0     0  0
 20 21  2  0     0  0
 25 28  1  0     0  0
 26 27  2  0     0  0
 26 28  1  0     0  0
M  END
> <standard_type>
pIC50

> <# Confs.>
25

> <canonical_smiles>
ClC(N=C1CCC=C)=C(C=O)N1CC2=CC=C(C3=CC=CC=C3C(O)=O)C=C2

> <standard_relation>
=

> <Publication_ID>
nan

> <predicted_activity_value>
6.853871964321762

> <actual_activity_value>
6.638272163982407

> <Compound>
10

> <standard_units>
nM

> hash
10268325833990702466

$$$$
10_
XXILIB    08252103443D 0   0.00000     0.00000

 28 30  0     1  0            999 V2000
    5.0174   -1.4738    0.0638 Cl  0  0  0  0  0  1           0  0  0
   -4.7359   -0.5476    3.8975 O   0  0  0  0  0  2           0  0  0
    1.1469   -3.0051   -0.8571 O   0  0  0  0  0  2           0  0  0
   -4.4416   -2.4679    5.0900 O   0  0  0  0  0  2           0  0  0
    1.4526    0.0000   -0.0000 N   0  0  0  0  0  3           0  0  0
    3.5362    0.7636    0.0243 N   0  0  0  0  0  3           0  0  0
    3.5476   -0.6067    0.0388 C   0  0  0  0  0  4           0  0  0
    2.2673    1.1150    0.0000 C   0  0  0  0  0  4           0  0  0
    2.2620   -1.1225    0.0230 C   0  0  0  0  0  4           0  0  0
   -2.0534    0.0028    5.4200 C   0  0  0  0  0  4           0  0  0
   -1.5335    0.0015    4.0456 C   0  0  0  0  0  4           0  0  0
   -3.2890   -0.5734    5.7919 C   0  0  0  0  0  4           0  0  0
   -0.5423    0.0000    1.3965 C   0  0  0  0  0  4           0  0  0
   -1.2783    0.5746    6.4497 C   0  0  0  0  0  4           0  0  0
   -1.2917   -1.2040    3.3703 C   0  0  0  0  0  4           0  0  0
   -1.2664    1.2059    3.3782 C   0  0  0  0  0  4           0  0  0
   -3.7043   -0.6081    7.1314 C   0  0  0  0  0  4           0  0  0
   -0.8005   -1.2048    2.0615 C   0  0  0  0  0  4           0  0  0
   -0.7741    1.2054    2.0700 C   0  0  0  0  0  4           0  0  0
   -1.6985    0.5512    7.7829 C   0  0  0  0  0  4           0  0  0
   -2.9072   -0.0452    8.1236 C   0  0  0  0  0  4           0  0  0
   -4.2258   -1.1614    4.8192 C   0  0  0  0  0  4           0  0  0
    1.8272   -2.4870    0.0227 C   0  0  0  0  0  4           0  0  0
   -0.0000    0.0000    0.0000 C   0  0  0  0  0  4           0  0  0
    1.7835    2.5224   -0.0227 C   0  0  0  0  0  4           0  0  0
    2.0712    4.8117   -1.0494 C   0  0  0  0  0  4           0  0  0
    2.8429    5.8668   -0.7658 C   0  0  0  0  0  4           0  0  0
    2.5519    3.3902   -1.0191 C   0  0  0  0  0  4           0  0  0
  1  7  1  0     0  0
  2 22  2  0     0  0
  3 23  2  0     0  0
  4 22  1  0     0  0
  5  8  1  0     0  0
  5  9  1  0     0  0
  5 24  1  0     0  0
  6  7  1  0     0  0
  6  8  2  0     0  0
  7  9  2  0     0  0
  8 25  1  0     0  0
  9 23  1  0     0  0
 10 11  1  0     0  0
 10 12  1  0     0  0
 10 14  2  0     0  0
 11 15  2  0     0  0
 11 16  1  0     0  0
 12 17  2  0     0  0
 12 22  1  0     0  0
 13 18  2  0     0  0
 13 19  1  0     0  0
 13 24  1  0     0  0
 14 20  1  0     0  0
 15 18  1  0     0  0
 16 19  2  0     0  0
 17 21  1  0     0  0
 20 21  2  0     0  0
 25 28  1  0     0  0
 26 27  2  0     0  0
 26 28  1  0     0  0
M  END
> <standard_type>
pIC50

> <# Confs.>
25

> <canonical_smiles>
ClC(N=C1CCC=C)=C(C=O)N1CC2=CC=C(C3=CC=CC=C3C(O)=O)C=C2

> <standard_relation>
=

> <Publication_ID>
nan

> <predicted_activity_value>
6.853871964321762

> <actual_activity_value>
6.638272163982407

> <Compound>
10

> <standard_units>
nM

> hash
10268325833990702466

$$$$
10_
XXILIB    08252103443D 0   0.00000     0.00000

 28 30  0     1  0            999 V2000
    5.0174   -1.4738    0.0638 Cl  0  0  0  0  0  1           0  0  0
    0.9580    0.6929    5.9408 O   0  0  0  0  0  2           0  0  0
    1.1469   -3.0051   -0.8571 O   0  0  0  0  0  2           0  0  0
    0.6694   -1.2139    7.1563 O   0  0  0  0  0  2           0  0  0
    1.4526    0.0000   -0.0000 N   0  0  0  0  0  3           0  0  0
    3.5362    0.7636    0.0243 N   0  0  0  0  0  3           0  0  0
    3.5476   -0.6067    0.0388 C   0  0  0  0  0  4           0  0  0
    2.2673    1.1150    0.0000 C   0  0  0  0  0  4           0  0  0
    2.2620   -1.1225    0.0230 C   0  0  0  0  0  4           0  0  0
   -2.0534    0.0028    5.4200 C   0  0  0  0  0  4           0  0  0
   -1.5335    0.0015    4.0456 C   0  0  0  0  0  4           0  0  0
   -1.2318   -0.0089    6.5696 C   0  0  0  0  0  4           0  0  0
   -0.5423    0.0000    1.3965 C   0  0  0  0  0  4           0  0  0
   -3.4468    0.0534    5.6299 C   0  0  0  0  0  4           0  0  0
   -1.2917   -1.2040    3.3703 C   0  0  0  0  0  4           0  0  0
   -1.2664    1.2059    3.3782 C   0  0  0  0  0  4           0  0  0
   -1.7794    0.0663    7.8589 C   0  0  0  0  0  4           0  0  0
   -0.8005   -1.2048    2.0615 C   0  0  0  0  0  4           0  0  0
   -0.7741    1.2054    2.0700 C   0  0  0  0  0  4           0  0  0
   -3.9928    0.1154    6.9155 C   0  0  0  0  0  4           0  0  0
   -3.1593    0.1281    8.0281 C   0  0  0  0  0  4           0  0  0
    0.2363   -0.1109    6.5061 C   0  0  0  0  0  4           0  0  0
    1.8272   -2.4870    0.0227 C   0  0  0  0  0  4           0  0  0
   -0.0000    0.0000    0.0000 C   0  0  0  0  0  4           0  0  0
    1.7835    2.5224   -0.0227 C   0  0  0  0  0  4           0  0  0
    2.0712    4.8117   -1.0494 C   0  0  0  0  0  4           0  0  0
    1.5779    5.4097   -2.1395 C   0  0  0  0  0  4           0  0  0
    2.5519    3.3902   -1.0191 C   0  0  0  0  0  4           0  0  0
  1  7  1  0     0  0
  2 22  2  0     0  0
  3 23  2  0     0  0
  4 22  1  0     0  0
  5  8  1  0     0  0
  5  9  1  0     0  0
  5 24  1  0     0  0
  6  7  1  0     0  0
  6  8  2  0     0  0
  7  9  2  0     0  0
  8 25  1  0     0  0
  9 23  1  0     0  0
 10 11  1  0     0  0
 10 12  1  0     0  0
 10 14  2  0     0  0
 11 15  2  0     0  0
 11 16  1  0     0  0
 12 17  2  0     0  0
 12 22  1  0     0  0
 13 18  2  0     0  0
 13 19  1  0     0  0
 13 24  1  0     0  0
 14 20  1  0     0  0
 15 18  1  0     0  0
 16 19  2  0     0  0
 17 21  1  0     0  0
 20 21  2  0     0  0
 25 28  1  0     0  0
 26 27  2  0     0  0
 26 28  1  0     0  0
M  END
> <standard_type>
pIC50

> <# Confs.>
25

> <canonical_smiles>
ClC(N=C1CCC=C)=C(C=O)N1CC2=CC=C(C3=CC=CC=C3C(O)=O)C=C2

> <standard_relation>
=

> <Publication_ID>
nan

> <predicted_activity_value>
6.853871964321762

> <actual_activity_value>
6.638272163982407

> <Compound>
10

> <standard_units>
nM

> hash
10268325833990702466

$$$$
10_
XXILIB    08252103443D 0   0.00000     0.00000

 28 30  0     1  0            999 V2000
    5.0174    1.0873    0.9971 Cl  0  0  0  0  0  1           0  0  0
    0.6493    1.2873    5.9859 O   0  0  0  0  0  2           0  0  0
    1.1225    2.7472    1.4922 O   0  0  0  0  0  2           0  0  0
   -0.8145    2.9558    6.5058 O   0  0  0  0  0  2           0  0  0
    1.4526    0.0000    0.0000 N   0  0  0  0  0  3           0  0  0
    3.5362   -0.5228   -0.5572 N   0  0  0  0  0  3           0  0  0
    3.5476    0.4564    0.4015 C   0  0  0  0  0  4           0  0  0
    2.2673   -0.7884   -0.7884 C   0  0  0  0  0  4           0  0  0
    2.2620    0.8100    0.7775 C   0  0  0  0  0  4           0  0  0
   -2.1277   -0.0358    5.3911 C   0  0  0  0  0  4           0  0  0
   -1.5882   -0.0257    4.0244 C   0  0  0  0  0  4           0  0  0
   -1.6367    0.7810    6.4344 C   0  0  0  0  0  4           0  0  0
   -0.5423   -0.0000    1.3965 C   0  0  0  0  0  4           0  0  0
   -3.2200   -0.8741    5.6949 C   0  0  0  0  0  4           0  0  0
   -2.1107    0.8401    3.0523 C   0  0  0  0  0  4           0  0  0
   -0.5390   -0.8827    3.6607 C   0  0  0  0  0  4           0  0  0
   -2.2361    0.7841    7.7027 C   0  0  0  0  0  4           0  0  0
   -1.5947    0.8519    1.7531 C   0  0  0  0  0  4           0  0  0
   -0.0237   -0.8720    2.3614 C   0  0  0  0  0  4           0  0  0
   -3.8091   -0.8802    6.9628 C   0  0  0  0  0  4           0  0  0
   -3.3212   -0.0472    7.9633 C   0  0  0  0  0  4           0  0  0
   -0.4713    1.6683    6.2786 C   0  0  0  0  0  4           0  0  0
    1.8272    1.7746    1.7425 C   0  0  0  0  0  4           0  0  0
    0.0000    0.0000    0.0000 C   0  0  0  0  0  4           0  0  0
    1.7835   -1.7997   -1.7675 C   0  0  0  0  0  4           0  0  0
    1.1265   -4.2120   -2.1237 C   0  0  0  0  0  4           0  0  0
   -0.0154   -4.8943   -1.9834 C   0  0  0  0  0  4           0  0  0
    1.6142   -3.1849   -1.1440 C   0  0  0  0  0  4           0  0  0
  1  7  1  0     0  0
  2 22  2  0     0  0
  3 23  2  0     0  0
  4 22  1  0     0  0
  5  8  1  0     0  0
  5  9  1  0     0  0
  5 24  1  0     0  0
  6  7  1  0     0  0
  6  8  2  0     0  0
  7  9  2  0     0  0
  8 25  1  0     0  0
  9 23  1  0     0  0
 10 11  1  0     0  0
 10 12  1  0     0  0
 10 14  2  0     0  0
 11 15  2  0     0  0
 11 16  1  0     0  0
 12 17  2  0     0  0
 12 22  1  0     0  0
 13 18  2  0     0  0
 13 19  1  0     0  0
 13 24  1  0     0  0
 14 20  1  0     0  0
 15 18  1  0     0  0
 16 19  2  0     0  0
 17 21  1  0     0  0
 20 21  2  0     0  0
 25 28  1  0     0  0
 26 27  2  0     0  0
 26 28  1  0     0  0
M  END
> <standard_type>
pIC50

> <# Confs.>
25

> <canonical_smiles>
ClC(N=C1CCC=C)=C(C=O)N1CC2=CC=C(C3=CC=CC=C3C(O)=O)C=C2

> <standard_relation>
=

> <Publication_ID>
nan

> <predicted_activity_value>
6.853871964321762

> <actual_activity_value>
6.638272163982407

> <Compound>
10

> <standard_units>
nM

> hash
10268325833990702466

$$$$
10_
XXILIB    08252103443D 0   0.00000     0.00000

 28 30  0     1  0            999 V2000
    5.0174   -1.4738    0.0638 Cl  0  0  0  0  0  1           0  0  0
   -0.0804   -2.5593    6.1627 O   0  0  0  0  0  2           0  0  0
    1.1469   -3.0051   -0.8571 O   0  0  0  0  0  2           0  0  0
    0.9405   -0.5482    6.4938 O   0  0  0  0  0  2           0  0  0
    1.4526    0.0000   -0.0000 N   0  0  0  0  0  3           0  0  0
    3.5362    0.7636    0.0243 N   0  0  0  0  0  3           0  0  0
    3.5476   -0.6067    0.0388 C   0  0  0  0  0  4           0  0  0
    2.2673    1.1150    0.0000 C   0  0  0  0  0  4           0  0  0
    2.2620   -1.1225    0.0230 C   0  0  0  0  0  4           0  0  0
   -2.0534    0.0028    5.4200 C   0  0  0  0  0  4           0  0  0
   -1.5335    0.0015    4.0456 C   0  0  0  0  0  4           0  0  0
   -1.3851   -0.5949    6.5122 C   0  0  0  0  0  4           0  0  0
   -0.5423    0.0000    1.3965 C   0  0  0  0  0  4           0  0  0
   -3.2692    0.6612    5.6965 C   0  0  0  0  0  4           0  0  0
   -1.2917   -1.2040    3.3703 C   0  0  0  0  0  4           0  0  0
   -1.2664    1.2059    3.3782 C   0  0  0  0  0  4           0  0  0
   -1.8911   -0.5016    7.8172 C   0  0  0  0  0  4           0  0  0
   -0.8005   -1.2048    2.0615 C   0  0  0  0  0  4           0  0  0
   -0.7741    1.2054    2.0700 C   0  0  0  0  0  4           0  0  0
   -3.7798    0.7430    6.9954 C   0  0  0  0  0  4           0  0  0
   -3.0879    0.1674    8.0550 C   0  0  0  0  0  4           0  0  0
   -0.1339   -1.3586    6.3673 C   0  0  0  0  0  4           0  0  0
    1.8272   -2.4870    0.0227 C   0  0  0  0  0  4           0  0  0
   -0.0000    0.0000    0.0000 C   0  0  0  0  0  4           0  0  0
    1.7835    2.5224   -0.0227 C   0  0  0  0  0  4           0  0  0
    2.0712    4.8117   -1.0494 C   0  0  0  0  0  4           0  0  0
    2.8429    5.8668   -0.7658 C   0  0  0  0  0  4           0  0  0
    2.5519    3.3902   -1.0191 C   0  0  0  0  0  4           0  0  0
  1  7  1  0     0  0
  2 22  2  0     0  0
  3 23  2  0     0  0
  4 22  1  0     0  0
  5  8  1  0     0  0
  5  9  1  0     0  0
  5 24  1  0     0  0
  6  7  1  0     0  0
  6  8  2  0     0  0
  7  9  2  0     0  0
  8 25  1  0     0  0
  9 23  1  0     0  0
 10 11  1  0     0  0
 10 12  1  0     0  0
 10 14  2  0     0  0
 11 15  2  0     0  0
 11 16  1  0     0  0
 12 17  2  0     0  0
 12 22  1  0     0  0
 13 18  2  0     0  0
 13 19  1  0     0  0
 13 24  1  0     0  0
 14 20  1  0     0  0
 15 18  1  0     0  0
 16 19  2  0     0  0
 17 21  1  0     0  0
 20 21  2  0     0  0
 25 28  1  0     0  0
 26 27  2  0     0  0
 26 28  1  0     0  0
M  END
> <standard_type>
pIC50

> <# Confs.>
25

> <canonical_smiles>
ClC(N=C1CCC=C)=C(C=O)N1CC2=CC=C(C3=CC=CC=C3C(O)=O)C=C2

> <standard_relation>
=

> <Publication_ID>
nan

> <predicted_activity_value>
6.853871964321762

> <actual_activity_value>
6.638272163982407

> <Compound>
10

> <standard_units>
nM

> hash
10268325833990702466

$$$$
10_
XXILIB    08252103443D 0   0.00000     0.00000

 28 30  0     1  0            999 V2000
    5.0174    1.4738   -0.0638 Cl  0  0  0  0  0  1           0  0  0
   -0.0804   -2.5593    6.1627 O   0  0  0  0  0  2           0  0  0
    1.1225    2.9977   -0.8874 O   0  0  0  0  0  2           0  0  0
    0.9405   -0.5482    6.4938 O   0  0  0  0  0  2           0  0  0
    1.4526   -0.0000   -0.0000 N   0  0  0  0  0  3           0  0  0
    3.5362   -0.7636   -0.0243 N   0  0  0  0  0  3           0  0  0
    3.5476    0.6067   -0.0388 C   0  0  0  0  0  4           0  0  0
    2.2673   -1.1150   -0.0000 C   0  0  0  0  0  4           0  0  0
    2.2620    1.1225   -0.0230 C   0  0  0  0  0  4           0  0  0
   -2.0534    0.0028    5.4200 C   0  0  0  0  0  4           0  0  0
   -1.5335    0.0015    4.0456 C   0  0  0  0  0  4           0  0  0
   -1.3851   -0.5949    6.5122 C   0  0  0  0  0  4           0  0  0
   -0.5423    0.0000    1.3965 C   0  0  0  0  0  4           0  0  0
   -3.2692    0.6612    5.6965 C   0  0  0  0  0  4           0  0  0
   -1.2917   -1.2040    3.3703 C   0  0  0  0  0  4           0  0  0
   -1.2664    1.2059    3.3782 C   0  0  0  0  0  4           0  0  0
   -1.8911   -0.5016    7.8172 C   0  0  0  0  0  4           0  0  0
   -0.8005   -1.2048    2.0615 C   0  0  0  0  0  4           0  0  0
   -0.7741    1.2054    2.0700 C   0  0  0  0  0  4           0  0  0
   -3.7798    0.7430    6.9954 C   0  0  0  0  0  4           0  0  0
   -3.0879    0.1674    8.0550 C   0  0  0  0  0  4           0  0  0
   -0.1339   -1.3586    6.3673 C   0  0  0  0  0  4           0  0  0
    1.8272    2.4870   -0.0227 C   0  0  0  0  0  4           0  0  0
   -0.0000    0.0000    0.0000 C   0  0  0  0  0  4           0  0  0
    1.7835   -2.5224    0.0227 C   0  0  0  0  0  4           0  0  0
    2.3733   -2.9462   -2.3960 C   0  0  0  0  0  4           0  0  0
    1.8275   -3.6826   -3.3701 C   0  0  0  0  0  4           0  0  0
    2.5219   -3.4121   -0.9770 C   0  0  0  0  0  4           0  0  0
  1  7  1  0     0  0
  2 22  2  0     0  0
  3 23  2  0     0  0
  4 22  1  0     0  0
  5  8  1  0     0  0
  5  9  1  0     0  0
  5 24  1  0     0  0
  6  7  1  0     0  0
  6  8  2  0     0  0
  7  9  2  0     0  0
  8 25  1  0     0  0
  9 23  1  0     0  0
 10 11  1  0     0  0
 10 12  1  0     0  0
 10 14  2  0     0  0
 11 15  2  0     0  0
 11 16  1  0     0  0
 12 17  2  0     0  0
 12 22  1  0     0  0
 13 18  2  0     0  0
 13 19  1  0     0  0
 13 24  1  0     0  0
 14 20  1  0     0  0
 15 18  1  0     0  0
 16 19  2  0     0  0
 17 21  1  0     0  0
 20 21  2  0     0  0
 25 28  1  0     0  0
 26 27  2  0     0  0
 26 28  1  0     0  0
M  END
> <standard_type>
pIC50

> <# Confs.>
25

> <canonical_smiles>
ClC(N=C1CCC=C)=C(C=O)N1CC2=CC=C(C3=CC=CC=C3C(O)=O)C=C2

> <standard_relation>
=

> <Publication_ID>
nan

> <predicted_activity_value>
6.853871964321762

> <actual_activity_value>
6.638272163982407

> <Compound>
10

> <standard_units>
nM

> hash
10268325833990702466

$$$$
10_
XXILIB    08252103443D 0   0.00000     0.00000

 28 30  0     1  0            999 V2000
    5.0174    1.4738   -0.0638 Cl  0  0  0  0  0  1           0  0  0
    0.9580    0.6929    5.9408 O   0  0  0  0  0  2           0  0  0
    1.1225    2.9977   -0.8874 O   0  0  0  0  0  2           0  0  0
    0.6694   -1.2139    7.1563 O   0  0  0  0  0  2           0  0  0
    1.4526   -0.0000   -0.0000 N   0  0  0  0  0  3           0  0  0
    3.5362   -0.7636   -0.0243 N   0  0  0  0  0  3           0  0  0
    3.5476    0.6067   -0.0388 C   0  0  0  0  0  4           0  0  0
    2.2673   -1.1150   -0.0000 C   0  0  0  0  0  4           0  0  0
    2.2620    1.1225   -0.0230 C   0  0  0  0  0  4           0  0  0
   -2.0534    0.0028    5.4200 C   0  0  0  0  0  4           0  0  0
   -1.5335    0.0015    4.0456 C   0  0  0  0  0  4           0  0  0
   -1.2318   -0.0089    6.5696 C   0  0  0  0  0  4           0  0  0
   -0.5423    0.0000    1.3965 C   0  0  0  0  0  4           0  0  0
   -3.4468    0.0534    5.6299 C   0  0  0  0  0  4           0  0  0
   -1.2917   -1.2040    3.3703 C   0  0  0  0  0  4           0  0  0
   -1.2664    1.2059    3.3782 C   0  0  0  0  0  4           0  0  0
   -1.7794    0.0663    7.8589 C   0  0  0  0  0  4           0  0  0
   -0.8005   -1.2048    2.0615 C   0  0  0  0  0  4           0  0  0
   -0.7741    1.2054    2.0700 C   0  0  0  0  0  4           0  0  0
   -3.9928    0.1154    6.9155 C   0  0  0  0  0  4           0  0  0
   -3.1593    0.1281    8.0281 C   0  0  0  0  0  4           0  0  0
    0.2363   -0.1109    6.5061 C   0  0  0  0  0  4           0  0  0
    1.8272    2.4870   -0.0227 C   0  0  0  0  0  4           0  0  0
   -0.0000    0.0000    0.0000 C   0  0  0  0  0  4           0  0  0
    1.7835   -2.5224    0.0227 C   0  0  0  0  0  4           0  0  0
    2.3733   -2.9462   -2.3960 C   0  0  0  0  0  4           0  0  0
    1.8275   -3.6826   -3.3701 C   0  0  0  0  0  4           0  0  0
    2.5219   -3.4121   -0.9770 C   0  0  0  0  0  4           0  0  0
  1  7  1  0     0  0
  2 22  2  0     0  0
  3 23  2  0     0  0
  4 22  1  0     0  0
  5  8  1  0     0  0
  5  9  1  0     0  0
  5 24  1  0     0  0
  6  7  1  0     0  0
  6  8  2  0     0  0
  7  9  2  0     0  0
  8 25  1  0     0  0
  9 23  1  0     0  0
 10 11  1  0     0  0
 10 12  1  0     0  0
 10 14  2  0     0  0
 11 15  2  0     0  0
 11 16  1  0     0  0
 12 17  2  0     0  0
 12 22  1  0     0  0
 13 18  2  0     0  0
 13 19  1  0     0  0
 13 24  1  0     0  0
 14 20  1  0     0  0
 15 18  1  0     0  0
 16 19  2  0     0  0
 17 21  1  0     0  0
 20 21  2  0     0  0
 25 28  1  0     0  0
 26 27  2  0     0  0
 26 28  1  0     0  0
M  END
> <standard_type>
pIC50

> <# Confs.>
25

> <canonical_smiles>
ClC(N=C1CCC=C)=C(C=O)N1CC2=CC=C(C3=CC=CC=C3C(O)=O)C=C2

> <standard_relation>
=

> <Publication_ID>
nan

> <predicted_activity_value>
6.853871964321762

> <actual_activity_value>
6.638272163982407

> <Compound>
10

> <standard_units>
nM

> hash
10268325833990702466

$$$$
10_
XXILIB    08252103443D 0   0.00000     0.00000

 28 30  0     1  0            999 V2000
    5.0174    1.4738   -0.0638 Cl  0  0  0  0  0  1           0  0  0
   -4.2140   -2.3303    4.4726 O   0  0  0  0  0  2           0  0  0
    1.1225    2.9977   -0.8874 O   0  0  0  0  0  2           0  0  0
   -5.0941   -0.2301    4.3656 O   0  0  0  0  0  2           0  0  0
    1.4526   -0.0000   -0.0000 N   0  0  0  0  0  3           0  0  0
    3.5362   -0.7636   -0.0243 N   0  0  0  0  0  3           0  0  0
    3.5476    0.6067   -0.0388 C   0  0  0  0  0  4           0  0  0
    2.2673   -1.1150   -0.0000 C   0  0  0  0  0  4           0  0  0
    2.2620    1.1225   -0.0230 C   0  0  0  0  0  4           0  0  0
   -2.0534    0.0028    5.4200 C   0  0  0  0  0  4           0  0  0
   -1.5335    0.0015    4.0456 C   0  0  0  0  0  4           0  0  0
   -3.2890   -0.5734    5.7919 C   0  0  0  0  0  4           0  0  0
   -0.5423    0.0000    1.3965 C   0  0  0  0  0  4           0  0  0
   -1.2783    0.5746    6.4497 C   0  0  0  0  0  4           0  0  0
   -1.2917   -1.2040    3.3703 C   0  0  0  0  0  4           0  0  0
   -1.2664    1.2059    3.3782 C   0  0  0  0  0  4           0  0  0
   -3.7043   -0.6081    7.1314 C   0  0  0  0  0  4           0  0  0
   -0.8005   -1.2048    2.0615 C   0  0  0  0  0  4           0  0  0
   -0.7741    1.2054    2.0700 C   0  0  0  0  0  4           0  0  0
   -1.6985    0.5512    7.7829 C   0  0  0  0  0  4           0  0  0
   -2.9072   -0.0452    8.1236 C   0  0  0  0  0  4           0  0  0
   -4.2258   -1.1614    4.8192 C   0  0  0  0  0  4           0  0  0
    1.8272    2.4870   -0.0227 C   0  0  0  0  0  4           0  0  0
   -0.0000    0.0000    0.0000 C   0  0  0  0  0  4           0  0  0
    1.7835   -2.5224    0.0227 C   0  0  0  0  0  4           0  0  0
    2.3733   -2.9462   -2.3960 C   0  0  0  0  0  4           0  0  0
    1.8275   -3.6826   -3.3701 C   0  0  0  0  0  4           0  0  0
    2.5219   -3.4121   -0.9770 C   0  0  0  0  0  4           0  0  0
  1  7  1  0     0  0
  2 22  2  0     0  0
  3 23  2  0     0  0
  4 22  1  0     0  0
  5  8  1  0     0  0
  5  9  1  0     0  0
  5 24  1  0     0  0
  6  7  1  0     0  0
  6  8  2  0     0  0
  7  9  2  0     0  0
  8 25  1  0     0  0
  9 23  1  0     0  0
 10 11  1  0     0  0
 10 12  1  0     0  0
 10 14  2  0     0  0
 11 15  2  0     0  0
 11 16  1  0     0  0
 12 17  2  0     0  0
 12 22  1  0     0  0
 13 18  2  0     0  0
 13 19  1  0     0  0
 13 24  1  0     0  0
 14 20  1  0     0  0
 15 18  1  0     0  0
 16 19  2  0     0  0
 17 21  1  0     0  0
 20 21  2  0     0  0
 25 28  1  0     0  0
 26 27  2  0     0  0
 26 28  1  0     0  0
M  END
> <standard_type>
pIC50

> <# Confs.>
25

> <canonical_smiles>
ClC(N=C1CCC=C)=C(C=O)N1CC2=CC=C(C3=CC=CC=C3C(O)=O)C=C2

> <standard_relation>
=

> <Publication_ID>
nan

> <predicted_activity_value>
6.853871964321762

> <actual_activity_value>
6.638272163982407

> <Compound>
10

> <standard_units>
nM

> hash
10268325833990702466

$$$$
10_
XXILIB    08252103443D 0   0.00000     0.00000

 28 30  0     1  0            999 V2000
    5.0174    1.4738   -0.0638 Cl  0  0  0  0  0  1           0  0  0
   -4.6561   -0.6884    3.8185 O   0  0  0  0  0  2           0  0  0
    1.1225    2.9977   -0.8874 O   0  0  0  0  0  2           0  0  0
   -5.2430    1.2206    4.9174 O   0  0  0  0  0  2           0  0  0
    1.4526   -0.0000   -0.0000 N   0  0  0  0  0  3           0  0  0
    3.5362   -0.7636   -0.0243 N   0  0  0  0  0  3           0  0  0
    3.5476    0.6067   -0.0388 C   0  0  0  0  0  4           0  0  0
    2.2673   -1.1150   -0.0000 C   0  0  0  0  0  4           0  0  0
    2.2620    1.1225   -0.0230 C   0  0  0  0  0  4           0  0  0
   -2.0534    0.0028    5.4200 C   0  0  0  0  0  4           0  0  0
   -1.5335    0.0015    4.0456 C   0  0  0  0  0  4           0  0  0
   -3.4302    0.0159    5.7379 C   0  0  0  0  0  4           0  0  0
   -0.5423    0.0000    1.3965 C   0  0  0  0  0  4           0  0  0
   -1.1479   -0.0466    6.4996 C   0  0  0  0  0  4           0  0  0
   -1.2917   -1.2040    3.3703 C   0  0  0  0  0  4           0  0  0
   -1.2664    1.2059    3.3782 C   0  0  0  0  0  4           0  0  0
   -3.8731   -0.0567    7.0670 C   0  0  0  0  0  4           0  0  0
   -0.8005   -1.2048    2.0615 C   0  0  0  0  0  4           0  0  0
   -0.7741    1.2054    2.0700 C   0  0  0  0  0  4           0  0  0
   -1.5895   -0.1061    7.8248 C   0  0  0  0  0  4           0  0  0
   -2.9507   -0.1174    8.1072 C   0  0  0  0  0  4           0  0  0
   -4.4887    0.1168    4.7186 C   0  0  0  0  0  4           0  0  0
    1.8272    2.4870   -0.0227 C   0  0  0  0  0  4           0  0  0
   -0.0000    0.0000    0.0000 C   0  0  0  0  0  4           0  0  0
    1.7835   -2.5224    0.0227 C   0  0  0  0  0  4           0  0  0
    2.0409   -4.8338   -0.9616 C   0  0  0  0  0  4           0  0  0
    2.8212   -5.8826   -0.6782 C   0  0  0  0  0  4           0  0  0
    2.5219   -3.4121   -0.9770 C   0  0  0  0  0  4           0  0  0
  1  7  1  0     0  0
  2 22  2  0     0  0
  3 23  2  0     0  0
  4 22  1  0     0  0
  5  8  1  0     0  0
  5  9  1  0     0  0
  5 24  1  0     0  0
  6  7  1  0     0  0
  6  8  2  0     0  0
  7  9  2  0     0  0
  8 25  1  0     0  0
  9 23  1  0     0  0
 10 11  1  0     0  0
 10 12  1  0     0  0
 10 14  2  0     0  0
 11 15  2  0     0  0
 11 16  1  0     0  0
 12 17  2  0     0  0
 12 22  1  0     0  0
 13 18  2  0     0  0
 13 19  1  0     0  0
 13 24  1  0     0  0
 14 20  1  0     0  0
 15 18  1  0     0  0
 16 19  2  0     0  0
 17 21  1  0     0  0
 20 21  2  0     0  0
 25 28  1  0     0  0
 26 27  2  0     0  0
 26 28  1  0     0  0
M  END
> <standard_type>
pIC50

> <# Confs.>
25

> <canonical_smiles>
ClC(N=C1CCC=C)=C(C=O)N1CC2=CC=C(C3=CC=CC=C3C(O)=O)C=C2

> <standard_relation>
=

> <Publication_ID>
nan

> <predicted_activity_value>
6.853871964321762

> <actual_activity_value>
6.638272163982407

> <Compound>
10

> <standard_units>
nM

> hash
10268325833990702466

$$$$
10_
XXILIB    08252103443D 0   0.00000     0.00000

 28 30  0     1  0            999 V2000
    5.0174   -1.4738    0.0638 Cl  0  0  0  0  0  1           0  0  0
    0.8402   -1.0452    6.0072 O   0  0  0  0  0  2           0  0  0
    1.1469   -3.0051   -0.8571 O   0  0  0  0  0  2           0  0  0
    0.8175    0.9682    7.0761 O   0  0  0  0  0  2           0  0  0
    1.4526   -0.0000    0.0000 N   0  0  0  0  0  3           0  0  0
    3.5362    0.7636    0.0243 N   0  0  0  0  0  3           0  0  0
    3.5476   -0.6067    0.0388 C   0  0  0  0  0  4           0  0  0
    2.2673    1.1150    0.0000 C   0  0  0  0  0  4           0  0  0
    2.2620   -1.1225    0.0230 C   0  0  0  0  0  4           0  0  0
   -2.0534    0.0028    5.4200 C   0  0  0  0  0  4           0  0  0
   -1.5335    0.0015    4.0456 C   0  0  0  0  0  4           0  0  0
   -1.2318   -0.0089    6.5696 C   0  0  0  0  0  4           0  0  0
   -0.5423    0.0000    1.3965 C   0  0  0  0  0  4           0  0  0
   -3.4468    0.0534    5.6299 C   0  0  0  0  0  4           0  0  0
   -1.2917   -1.2040    3.3703 C   0  0  0  0  0  4           0  0  0
   -1.2664    1.2059    3.3782 C   0  0  0  0  0  4           0  0  0
   -1.7794    0.0663    7.8589 C   0  0  0  0  0  4           0  0  0
   -0.8005   -1.2048    2.0615 C   0  0  0  0  0  4           0  0  0
   -0.7741    1.2054    2.0700 C   0  0  0  0  0  4           0  0  0
   -3.9928    0.1154    6.9155 C   0  0  0  0  0  4           0  0  0
   -3.1593    0.1281    8.0281 C   0  0  0  0  0  4           0  0  0
    0.2363   -0.1109    6.5061 C   0  0  0  0  0  4           0  0  0
    1.8272   -2.4870    0.0227 C   0  0  0  0  0  4           0  0  0
   -0.0000    0.0000    0.0000 C   0  0  0  0  0  4           0  0  0
    1.7835    2.5224   -0.0227 C   0  0  0  0  0  4           0  0  0
    2.3733    2.9462    2.3960 C   0  0  0  0  0  4           0  0  0
    1.8275    3.6826    3.3701 C   0  0  0  0  0  4           0  0  0
    2.5219    3.4121    0.9770 C   0  0  0  0  0  4           0  0  0
  1  7  1  0     0  0
  2 22  2  0     0  0
  3 23  2  0     0  0
  4 22  1  0     0  0
  5  8  1  0     0  0
  5  9  1  0     0  0
  5 24  1  0     0  0
  6  7  1  0     0  0
  6  8  2  0     0  0
  7  9  2  0     0  0
  8 25  1  0     0  0
  9 23  1  0     0  0
 10 11  1  0     0  0
 10 12  1  0     0  0
 10 14  2  0     0  0
 11 15  2  0     0  0
 11 16  1  0     0  0
 12 17  2  0     0  0
 12 22  1  0     0  0
 13 18  2  0     0  0
 13 19  1  0     0  0
 13 24  1  0     0  0
 14 20  1  0     0  0
 15 18  1  0     0  0
 16 19  2  0     0  0
 17 21  1  0     0  0
 20 21  2  0     0  0
 25 28  1  0     0  0
 26 27  2  0     0  0
 26 28  1  0     0  0
M  END
> <standard_type>
pIC50

> <# Confs.>
25

> <canonical_smiles>
ClC(N=C1CCC=C)=C(C=O)N1CC2=CC=C(C3=CC=CC=C3C(O)=O)C=C2

> <standard_relation>
=

> <Publication_ID>
nan

> <predicted_activity_value>
6.853871964321762

> <actual_activity_value>
6.638272163982407

> <Compound>
10

> <standard_units>
nM

> hash
10268325833990702466

$$$$
10_
XXILIB    08252103443D 0   0.00000     0.00000

 28 30  0     1  0            999 V2000
    5.0174   -1.4738    0.0638 Cl  0  0  0  0  0  1           0  0  0
    0.8402   -1.0452    6.0072 O   0  0  0  0  0  2           0  0  0
    1.1469   -3.0051   -0.8571 O   0  0  0  0  0  2           0  0  0
    0.8175    0.9682    7.0761 O   0  0  0  0  0  2           0  0  0
    1.4526   -0.0000    0.0000 N   0  0  0  0  0  3           0  0  0
    3.5362    0.7636    0.0243 N   0  0  0  0  0  3           0  0  0
    3.5476   -0.6067    0.0388 C   0  0  0  0  0  4           0  0  0
    2.2673    1.1150    0.0000 C   0  0  0  0  0  4           0  0  0
    2.2620   -1.1225    0.0230 C   0  0  0  0  0  4           0  0  0
   -2.0534    0.0028    5.4200 C   0  0  0  0  0  4           0  0  0
   -1.5335    0.0015    4.0456 C   0  0  0  0  0  4           0  0  0
   -1.2318   -0.0089    6.5696 C   0  0  0  0  0  4           0  0  0
   -0.5423    0.0000    1.3965 C   0  0  0  0  0  4           0  0  0
   -3.4468    0.0534    5.6299 C   0  0  0  0  0  4           0  0  0
   -1.2917   -1.2040    3.3703 C   0  0  0  0  0  4           0  0  0
   -1.2664    1.2059    3.3782 C   0  0  0  0  0  4           0  0  0
   -1.7794    0.0663    7.8589 C   0  0  0  0  0  4           0  0  0
   -0.8005   -1.2048    2.0615 C   0  0  0  0  0  4           0  0  0
   -0.7741    1.2054    2.0700 C   0  0  0  0  0  4           0  0  0
   -3.9928    0.1154    6.9155 C   0  0  0  0  0  4           0  0  0
   -3.1593    0.1281    8.0281 C   0  0  0  0  0  4           0  0  0
    0.2363   -0.1109    6.5061 C   0  0  0  0  0  4           0  0  0
    1.8272   -2.4870    0.0227 C   0  0  0  0  0  4           0  0  0
   -0.0000    0.0000    0.0000 C   0  0  0  0  0  4           0  0  0
    1.7835    2.5224   -0.0227 C   0  0  0  0  0  4           0  0  0
    2.0409    4.8338    0.9616 C   0  0  0  0  0  4           0  0  0
    1.5153    5.4554    2.0229 C   0  0  0  0  0  4           0  0  0
    2.5219    3.4121    0.9770 C   0  0  0  0  0  4           0  0  0
  1  7  1  0     0  0
  2 22  2  0     0  0
  3 23  2  0     0  0
  4 22  1  0     0  0
  5  8  1  0     0  0
  5  9  1  0     0  0
  5 24  1  0     0  0
  6  7  1  0     0  0
  6  8  2  0     0  0
  7  9  2  0     0  0
  8 25  1  0     0  0
  9 23  1  0     0  0
 10 11  1  0     0  0
 10 12  1  0     0  0
 10 14  2  0     0  0
 11 15  2  0     0  0
 11 16  1  0     0  0
 12 17  2  0     0  0
 12 22  1  0     0  0
 13 18  2  0     0  0
 13 19  1  0     0  0
 13 24  1  0     0  0
 14 20  1  0     0  0
 15 18  1  0     0  0
 16 19  2  0     0  0
 17 21  1  0     0  0
 20 21  2  0     0  0
 25 28  1  0     0  0
 26 27  2  0     0  0
 26 28  1  0     0  0
M  END
> <standard_type>
pIC50

> <# Confs.>
25

> <canonical_smiles>
ClC(N=C1CCC=C)=C(C=O)N1CC2=CC=C(C3=CC=CC=C3C(O)=O)C=C2

> <standard_relation>
=

> <Publication_ID>
nan

> <predicted_activity_value>
6.853871964321762

> <actual_activity_value>
6.638272163982407

> <Compound>
10

> <standard_units>
nM

> hash
10268325833990702466

$$$$
10_
XXILIB    08252103443D 0   0.00000     0.00000

 28 30  0     1  0            999 V2000
    5.0174    1.4738   -0.0638 Cl  0  0  0  0  0  1           0  0  0
    0.8402   -1.0452    6.0072 O   0  0  0  0  0  2           0  0  0
    1.1225    2.9977   -0.8874 O   0  0  0  0  0  2           0  0  0
    0.8175    0.9682    7.0761 O   0  0  0  0  0  2           0  0  0
    1.4526   -0.0000   -0.0000 N   0  0  0  0  0  3           0  0  0
    3.5362   -0.7636   -0.0243 N   0  0  0  0  0  3           0  0  0
    3.5476    0.6067   -0.0388 C   0  0  0  0  0  4           0  0  0
    2.2673   -1.1150   -0.0000 C   0  0  0  0  0  4           0  0  0
    2.2620    1.1225   -0.0230 C   0  0  0  0  0  4           0  0  0
   -2.0534    0.0028    5.4200 C   0  0  0  0  0  4           0  0  0
   -1.5335    0.0015    4.0456 C   0  0  0  0  0  4           0  0  0
   -1.2318   -0.0089    6.5696 C   0  0  0  0  0  4           0  0  0
   -0.5423    0.0000    1.3965 C   0  0  0  0  0  4           0  0  0
   -3.4468    0.0534    5.6299 C   0  0  0  0  0  4           0  0  0
   -1.2917   -1.2040    3.3703 C   0  0  0  0  0  4           0  0  0
   -1.2664    1.2059    3.3782 C   0  0  0  0  0  4           0  0  0
   -1.7794    0.0663    7.8589 C   0  0  0  0  0  4           0  0  0
   -0.8005   -1.2048    2.0615 C   0  0  0  0  0  4           0  0  0
   -0.7741    1.2054    2.0700 C   0  0  0  0  0  4           0  0  0
   -3.9928    0.1154    6.9155 C   0  0  0  0  0  4           0  0  0
   -3.1593    0.1281    8.0281 C   0  0  0  0  0  4           0  0  0
    0.2363   -0.1109    6.5061 C   0  0  0  0  0  4           0  0  0
    1.8272    2.4870   -0.0227 C   0  0  0  0  0  4           0  0  0
   -0.0000    0.0000    0.0000 C   0  0  0  0  0  4           0  0  0
    1.7835   -2.5224    0.0227 C   0  0  0  0  0  4           0  0  0
    2.0409   -4.8338   -0.9616 C   0  0  0  0  0  4           0  0  0
    2.8212   -5.8826   -0.6782 C   0  0  0  0  0  4           0  0  0
    2.5219   -3.4121   -0.9770 C   0  0  0  0  0  4           0  0  0
  1  7  1  0     0  0
  2 22  2  0     0  0
  3 23  2  0     0  0
  4 22  1  0     0  0
  5  8  1  0     0  0
  5  9  1  0     0  0
  5 24  1  0     0  0
  6  7  1  0     0  0
  6  8  2  0     0  0
  7  9  2  0     0  0
  8 25  1  0     0  0
  9 23  1  0     0  0
 10 11  1  0     0  0
 10 12  1  0     0  0
 10 14  2  0     0  0
 11 15  2  0     0  0
 11 16  1  0     0  0
 12 17  2  0     0  0
 12 22  1  0     0  0
 13 18  2  0     0  0
 13 19  1  0     0  0
 13 24  1  0     0  0
 14 20  1  0     0  0
 15 18  1  0     0  0
 16 19  2  0     0  0
 17 21  1  0     0  0
 20 21  2  0     0  0
 25 28  1  0     0  0
 26 27  2  0     0  0
 26 28  1  0     0  0
M  END
> <standard_type>
pIC50

> <# Confs.>
25

> <canonical_smiles>
ClC(N=C1CCC=C)=C(C=O)N1CC2=CC=C(C3=CC=CC=C3C(O)=O)C=C2

> <standard_relation>
=

> <Publication_ID>
nan

> <predicted_activity_value>
6.853871964321762

> <actual_activity_value>
6.638272163982407

> <Compound>
10

> <standard_units>
nM

> hash
10268325833990702466

$$$$
10_
XXILIB    08252103443D 0   0.00000     0.00000

 28 30  0     1  0            999 V2000
    5.0174    1.4738   -0.0638 Cl  0  0  0  0  0  1           0  0  0
   -4.6106    1.0499    3.9433 O   0  0  0  0  0  2           0  0  0
    1.1225    2.9977   -0.8874 O   0  0  0  0  0  2           0  0  0
   -5.3023   -0.9616    4.7630 O   0  0  0  0  0  2           0  0  0
    1.4526   -0.0000   -0.0000 N   0  0  0  0  0  3           0  0  0
    3.5362   -0.7636   -0.0243 N   0  0  0  0  0  3           0  0  0
    3.5476    0.6067   -0.0388 C   0  0  0  0  0  4           0  0  0
    2.2673   -1.1150   -0.0000 C   0  0  0  0  0  4           0  0  0
    2.2620    1.1225   -0.0230 C   0  0  0  0  0  4           0  0  0
   -2.0534    0.0028    5.4200 C   0  0  0  0  0  4           0  0  0
   -1.5335    0.0015    4.0456 C   0  0  0  0  0  4           0  0  0
   -3.4302    0.0159    5.7379 C   0  0  0  0  0  4           0  0  0
   -0.5423    0.0000    1.3965 C   0  0  0  0  0  4           0  0  0
   -1.1479   -0.0466    6.4996 C   0  0  0  0  0  4           0  0  0
   -1.2917   -1.2040    3.3703 C   0  0  0  0  0  4           0  0  0
   -1.2664    1.2059    3.3782 C   0  0  0  0  0  4           0  0  0
   -3.8731   -0.0567    7.0670 C   0  0  0  0  0  4           0  0  0
   -0.8005   -1.2048    2.0615 C   0  0  0  0  0  4           0  0  0
   -0.7741    1.2054    2.0700 C   0  0  0  0  0  4           0  0  0
   -1.5895   -0.1061    7.8248 C   0  0  0  0  0  4           0  0  0
   -2.9507   -0.1174    8.1072 C   0  0  0  0  0  4           0  0  0
   -4.4887    0.1168    4.7186 C   0  0  0  0  0  4           0  0  0
    1.8272    2.4870   -0.0227 C   0  0  0  0  0  4           0  0  0
   -0.0000    0.0000    0.0000 C   0  0  0  0  0  4           0  0  0
    1.7835   -2.5224    0.0227 C   0  0  0  0  0  4           0  0  0
    2.3733   -2.9462   -2.3960 C   0  0  0  0  0  4           0  0  0
    1.8275   -3.6826   -3.3701 C   0  0  0  0  0  4           0  0  0
    2.5219   -3.4121   -0.9770 C   0  0  0  0  0  4           0  0  0
  1  7  1  0     0  0
  2 22  2  0     0  0
  3 23  2  0     0  0
  4 22  1  0     0  0
  5  8  1  0     0  0
  5  9  1  0     0  0
  5 24  1  0     0  0
  6  7  1  0     0  0
  6  8  2  0     0  0
  7  9  2  0     0  0
  8 25  1  0     0  0
  9 23  1  0     0  0
 10 11  1  0     0  0
 10 12  1  0     0  0
 10 14  2  0     0  0
 11 15  2  0     0  0
 11 16  1  0     0  0
 12 17  2  0     0  0
 12 22  1  0     0  0
 13 18  2  0     0  0
 13 19  1  0     0  0
 13 24  1  0     0  0
 14 20  1  0     0  0
 15 18  1  0     0  0
 16 19  2  0     0  0
 17 21  1  0     0  0
 20 21  2  0     0  0
 25 28  1  0     0  0
 26 27  2  0     0  0
 26 28  1  0     0  0
M  END
> <standard_type>
pIC50

> <# Confs.>
25

> <canonical_smiles>
ClC(N=C1CCC=C)=C(C=O)N1CC2=CC=C(C3=CC=CC=C3C(O)=O)C=C2

> <standard_relation>
=

> <Publication_ID>
nan

> <predicted_activity_value>
6.853871964321762

> <actual_activity_value>
6.638272163982407

> <Compound>
10

> <standard_units>
nM

> hash
10268325833990702466

$$$$
10_
XXILIB    08252103443D 0   0.00000     0.00000

 28 30  0     1  0            999 V2000
    5.0174    1.4738   -0.0638 Cl  0  0  0  0  0  1           0  0  0
   -4.7359   -0.5476    3.8975 O   0  0  0  0  0  2           0  0  0
    1.1225    2.9977   -0.8874 O   0  0  0  0  0  2           0  0  0
   -4.4416   -2.4679    5.0900 O   0  0  0  0  0  2           0  0  0
    1.4526   -0.0000   -0.0000 N   0  0  0  0  0  3           0  0  0
    3.5362   -0.7636   -0.0243 N   0  0  0  0  0  3           0  0  0
    3.5476    0.6067   -0.0388 C   0  0  0  0  0  4           0  0  0
    2.2673   -1.1150   -0.0000 C   0  0  0  0  0  4           0  0  0
    2.2620    1.1225   -0.0230 C   0  0  0  0  0  4           0  0  0
   -2.0534    0.0028    5.4200 C   0  0  0  0  0  4           0  0  0
   -1.5335    0.0015    4.0456 C   0  0  0  0  0  4           0  0  0
   -3.2890   -0.5734    5.7919 C   0  0  0  0  0  4           0  0  0
   -0.5423    0.0000    1.3965 C   0  0  0  0  0  4           0  0  0
   -1.2783    0.5746    6.4497 C   0  0  0  0  0  4           0  0  0
   -1.2917   -1.2040    3.3703 C   0  0  0  0  0  4           0  0  0
   -1.2664    1.2059    3.3782 C   0  0  0  0  0  4           0  0  0
   -3.7043   -0.6081    7.1314 C   0  0  0  0  0  4           0  0  0
   -0.8005   -1.2048    2.0615 C   0  0  0  0  0  4           0  0  0
   -0.7741    1.2054    2.0700 C   0  0  0  0  0  4           0  0  0
   -1.6985    0.5512    7.7829 C   0  0  0  0  0  4           0  0  0
   -2.9072   -0.0452    8.1236 C   0  0  0  0  0  4           0  0  0
   -4.2258   -1.1614    4.8192 C   0  0  0  0  0  4           0  0  0
    1.8272    2.4870   -0.0227 C   0  0  0  0  0  4           0  0  0
   -0.0000    0.0000    0.0000 C   0  0  0  0  0  4           0  0  0
    1.7835   -2.5224    0.0227 C   0  0  0  0  0  4           0  0  0
    2.0409   -4.8338   -0.9616 C   0  0  0  0  0  4           0  0  0
    2.8212   -5.8826   -0.6782 C   0  0  0  0  0  4           0  0  0
    2.5219   -3.4121   -0.9770 C   0  0  0  0  0  4           0  0  0
  1  7  1  0     0  0
  2 22  2  0     0  0
  3 23  2  0     0  0
  4 22  1  0     0  0
  5  8  1  0     0  0
  5  9  1  0     0  0
  5 24  1  0     0  0
  6  7  1  0     0  0
  6  8  2  0     0  0
  7  9  2  0     0  0
  8 25  1  0     0  0
  9 23  1  0     0  0
 10 11  1  0     0  0
 10 12  1  0     0  0
 10 14  2  0     0  0
 11 15  2  0     0  0
 11 16  1  0     0  0
 12 17  2  0     0  0
 12 22  1  0     0  0
 13 18  2  0     0  0
 13 19  1  0     0  0
 13 24  1  0     0  0
 14 20  1  0     0  0
 15 18  1  0     0  0
 16 19  2  0     0  0
 17 21  1  0     0  0
 20 21  2  0     0  0
 25 28  1  0     0  0
 26 27  2  0     0  0
 26 28  1  0     0  0
M  END
> <standard_type>
pIC50

> <# Confs.>
25

> <canonical_smiles>
ClC(N=C1CCC=C)=C(C=O)N1CC2=CC=C(C3=CC=CC=C3C(O)=O)C=C2

> <standard_relation>
=

> <Publication_ID>
nan

> <predicted_activity_value>
6.853871964321762

> <actual_activity_value>
6.638272163982407

> <Compound>
10

> <standard_units>
nM

> hash
10268325833990702466

$$$$
10_
XXILIB    08252103443D 0   0.00000     0.00000

 28 30  0     1  0            999 V2000
    5.0174    1.4738   -0.0638 Cl  0  0  0  0  0  1           0  0  0
    0.9580    0.6929    5.9408 O   0  0  0  0  0  2           0  0  0
    1.1225    2.9977   -0.8874 O   0  0  0  0  0  2           0  0  0
    0.6694   -1.2139    7.1563 O   0  0  0  0  0  2           0  0  0
    1.4526    0.0000   -0.0000 N   0  0  0  0  0  3           0  0  0
    3.5362   -0.7636   -0.0243 N   0  0  0  0  0  3           0  0  0
    3.5476    0.6067   -0.0388 C   0  0  0  0  0  4           0  0  0
    2.2673   -1.1150    0.0000 C   0  0  0  0  0  4           0  0  0
    2.2620    1.1225   -0.0230 C   0  0  0  0  0  4           0  0  0
   -2.0534    0.0028    5.4200 C   0  0  0  0  0  4           0  0  0
   -1.5335    0.0015    4.0456 C   0  0  0  0  0  4           0  0  0
   -1.2318   -0.0089    6.5696 C   0  0  0  0  0  4           0  0  0
   -0.5423    0.0000    1.3965 C   0  0  0  0  0  4           0  0  0
   -3.4468    0.0534    5.6299 C   0  0  0  0  0  4           0  0  0
   -1.2917   -1.2040    3.3703 C   0  0  0  0  0  4           0  0  0
   -1.2664    1.2059    3.3782 C   0  0  0  0  0  4           0  0  0
   -1.7794    0.0663    7.8589 C   0  0  0  0  0  4           0  0  0
   -0.8005   -1.2048    2.0615 C   0  0  0  0  0  4           0  0  0
   -0.7741    1.2054    2.0700 C   0  0  0  0  0  4           0  0  0
   -3.9928    0.1154    6.9155 C   0  0  0  0  0  4           0  0  0
   -3.1593    0.1281    8.0281 C   0  0  0  0  0  4           0  0  0
    0.2363   -0.1109    6.5061 C   0  0  0  0  0  4           0  0  0
    1.8272    2.4870   -0.0227 C   0  0  0  0  0  4           0  0  0
   -0.0000    0.0000    0.0000 C   0  0  0  0  0  4           0  0  0
    1.7835   -2.5224    0.0227 C   0  0  0  0  0  4           0  0  0
    2.4500   -4.9583    0.0395 C   0  0  0  0  0  4           0  0  0
    2.7528   -5.8319    1.0059 C   0  0  0  0  0  4           0  0  0
    2.9279   -3.5356    0.0167 C   0  0  0  0  0  4           0  0  0
  1  7  1  0     0  0
  2 22  2  0     0  0
  3 23  2  0     0  0
  4 22  1  0     0  0
  5  8  1  0     0  0
  5  9  1  0     0  0
  5 24  1  0     0  0
  6  7  1  0     0  0
  6  8  2  0     0  0
  7  9  2  0     0  0
  8 25  1  0     0  0
  9 23  1  0     0  0
 10 11  1  0     0  0
 10 12  1  0     0  0
 10 14  2  0     0  0
 11 15  2  0     0  0
 11 16  1  0     0  0
 12 17  2  0     0  0
 12 22  1  0     0  0
 13 18  2  0     0  0
 13 19  1  0     0  0
 13 24  1  0     0  0
 14 20  1  0     0  0
 15 18  1  0     0  0
 16 19  2  0     0  0
 17 21  1  0     0  0
 20 21  2  0     0  0
 25 28  1  0     0  0
 26 27  2  0     0  0
 26 28  1  0     0  0
M  END
> <standard_type>
pIC50

> <# Confs.>
25

> <canonical_smiles>
ClC(N=C1CCC=C)=C(C=O)N1CC2=CC=C(C3=CC=CC=C3C(O)=O)C=C2

> <standard_relation>
=

> <Publication_ID>
nan

> <predicted_activity_value>
6.853871964321762

> <actual_activity_value>
6.638272163982407

> <Compound>
10

> <standard_units>
nM

> hash
10268325833990702466

$$$$
10_
XXILIB    08252103443D 0   0.00000     0.00000

 28 30  0     1  0            999 V2000
    5.0174   -1.4738    0.0638 Cl  0  0  0  0  0  1           0  0  0
   -4.6561   -0.6884    3.8185 O   0  0  0  0  0  2           0  0  0
    1.1469   -3.0051   -0.8571 O   0  0  0  0  0  2           0  0  0
   -5.2430    1.2206    4.9174 O   0  0  0  0  0  2           0  0  0
    1.4526    0.0000   -0.0000 N   0  0  0  0  0  3           0  0  0
    3.5362    0.7636    0.0243 N   0  0  0  0  0  3           0  0  0
    3.5476   -0.6067    0.0388 C   0  0  0  0  0  4           0  0  0
    2.2673    1.1150    0.0000 C   0  0  0  0  0  4           0  0  0
    2.2620   -1.1225    0.0230 C   0  0  0  0  0  4           0  0  0
   -2.0534    0.0028    5.4200 C   0  0  0  0  0  4           0  0  0
   -1.5335    0.0015    4.0456 C   0  0  0  0  0  4           0  0  0
   -3.4302    0.0159    5.7379 C   0  0  0  0  0  4           0  0  0
   -0.5423    0.0000    1.3965 C   0  0  0  0  0  4           0  0  0
   -1.1479   -0.0466    6.4996 C   0  0  0  0  0  4           0  0  0
   -1.2917   -1.2040    3.3703 C   0  0  0  0  0  4           0  0  0
   -1.2664    1.2059    3.3782 C   0  0  0  0  0  4           0  0  0
   -3.8731   -0.0567    7.0670 C   0  0  0  0  0  4           0  0  0
   -0.8005   -1.2048    2.0615 C   0  0  0  0  0  4           0  0  0
   -0.7741    1.2054    2.0700 C   0  0  0  0  0  4           0  0  0
   -1.5895   -0.1061    7.8248 C   0  0  0  0  0  4           0  0  0
   -2.9507   -0.1174    8.1072 C   0  0  0  0  0  4           0  0  0
   -4.4887    0.1168    4.7186 C   0  0  0  0  0  4           0  0  0
    1.8272   -2.4870    0.0227 C   0  0  0  0  0  4           0  0  0
   -0.0000    0.0000    0.0000 C   0  0  0  0  0  4           0  0  0
    1.7835    2.5224   -0.0227 C   0  0  0  0  0  4           0  0  0
    2.0712    4.8117   -1.0494 C   0  0  0  0  0  4           0  0  0
    2.8429    5.8668   -0.7658 C   0  0  0  0  0  4           0  0  0
    2.5519    3.3902   -1.0191 C   0  0  0  0  0  4           0  0  0
  1  7  1  0     0  0
  2 22  2  0     0  0
  3 23  2  0     0  0
  4 22  1  0     0  0
  5  8  1  0     0  0
  5  9  1  0     0  0
  5 24  1  0     0  0
  6  7  1  0     0  0
  6  8  2  0     0  0
  7  9  2  0     0  0
  8 25  1  0     0  0
  9 23  1  0     0  0
 10 11  1  0     0  0
 10 12  1  0     0  0
 10 14  2  0     0  0
 11 15  2  0     0  0
 11 16  1  0     0  0
 12 17  2  0     0  0
 12 22  1  0     0  0
 13 18  2  0     0  0
 13 19  1  0     0  0
 13 24  1  0     0  0
 14 20  1  0     0  0
 15 18  1  0     0  0
 16 19  2  0     0  0
 17 21  1  0     0  0
 20 21  2  0     0  0
 25 28  1  0     0  0
 26 27  2  0     0  0
 26 28  1  0     0  0
M  END
> <standard_type>
pIC50

> <# Confs.>
25

> <canonical_smiles>
ClC(N=C1CCC=C)=C(C=O)N1CC2=CC=C(C3=CC=CC=C3C(O)=O)C=C2

> <standard_relation>
=

> <Publication_ID>
nan

> <predicted_activity_value>
6.853871964321762

> <actual_activity_value>
6.638272163982407

> <Compound>
10

> <standard_units>
nM

> hash
10268325833990702466

$$$$
10_
XXILIB    08252103443D 0   0.00000     0.00000

 28 30  0     1  0            999 V2000
    5.0174    1.4738   -0.0638 Cl  0  0  0  0  0  1           0  0  0
   -4.6106    1.0499    3.9433 O   0  0  0  0  0  2           0  0  0
    1.1225    2.9977   -0.8874 O   0  0  0  0  0  2           0  0  0
   -5.3023   -0.9616    4.7630 O   0  0  0  0  0  2           0  0  0
    1.4526    0.0000   -0.0000 N   0  0  0  0  0  3           0  0  0
    3.5362   -0.7636   -0.0243 N   0  0  0  0  0  3           0  0  0
    3.5476    0.6067   -0.0388 C   0  0  0  0  0  4           0  0  0
    2.2673   -1.1150    0.0000 C   0  0  0  0  0  4           0  0  0
    2.2620    1.1225   -0.0230 C   0  0  0  0  0  4           0  0  0
   -2.0534    0.0028    5.4200 C   0  0  0  0  0  4           0  0  0
   -1.5335    0.0015    4.0456 C   0  0  0  0  0  4           0  0  0
   -3.4302    0.0159    5.7379 C   0  0  0  0  0  4           0  0  0
   -0.5423    0.0000    1.3965 C   0  0  0  0  0  4           0  0  0
   -1.1479   -0.0466    6.4996 C   0  0  0  0  0  4           0  0  0
   -1.2917   -1.2040    3.3703 C   0  0  0  0  0  4           0  0  0
   -1.2664    1.2059    3.3782 C   0  0  0  0  0  4           0  0  0
   -3.8731   -0.0567    7.0670 C   0  0  0  0  0  4           0  0  0
   -0.8005   -1.2048    2.0615 C   0  0  0  0  0  4           0  0  0
   -0.7741    1.2054    2.0700 C   0  0  0  0  0  4           0  0  0
   -1.5895   -0.1061    7.8248 C   0  0  0  0  0  4           0  0  0
   -2.9507   -0.1174    8.1072 C   0  0  0  0  0  4           0  0  0
   -4.4887    0.1168    4.7186 C   0  0  0  0  0  4           0  0  0
    1.8272    2.4870   -0.0227 C   0  0  0  0  0  4           0  0  0
   -0.0000    0.0000    0.0000 C   0  0  0  0  0  4           0  0  0
    1.7835   -2.5224    0.0227 C   0  0  0  0  0  4           0  0  0
    2.4500   -4.9583    0.0395 C   0  0  0  0  0  4           0  0  0
    2.7528   -5.8319    1.0059 C   0  0  0  0  0  4           0  0  0
    2.9279   -3.5356    0.0167 C   0  0  0  0  0  4           0  0  0
  1  7  1  0     0  0
  2 22  2  0     0  0
  3 23  2  0     0  0
  4 22  1  0     0  0
  5  8  1  0     0  0
  5  9  1  0     0  0
  5 24  1  0     0  0
  6  7  1  0     0  0
  6  8  2  0     0  0
  7  9  2  0     0  0
  8 25  1  0     0  0
  9 23  1  0     0  0
 10 11  1  0     0  0
 10 12  1  0     0  0
 10 14  2  0     0  0
 11 15  2  0     0  0
 11 16  1  0     0  0
 12 17  2  0     0  0
 12 22  1  0     0  0
 13 18  2  0     0  0
 13 19  1  0     0  0
 13 24  1  0     0  0
 14 20  1  0     0  0
 15 18  1  0     0  0
 16 19  2  0     0  0
 17 21  1  0     0  0
 20 21  2  0     0  0
 25 28  1  0     0  0
 26 27  2  0     0  0
 26 28  1  0     0  0
M  END
> <standard_type>
pIC50

> <# Confs.>
25

> <canonical_smiles>
ClC(N=C1CCC=C)=C(C=O)N1CC2=CC=C(C3=CC=CC=C3C(O)=O)C=C2

> <standard_relation>
=

> <Publication_ID>
nan

> <predicted_activity_value>
6.853871964321762

> <actual_activity_value>
6.638272163982407

> <Compound>
10

> <standard_units>
nM

> hash
10268325833990702466

$$$$
10_
XXILIB    08252103443D 0   0.00000     0.00000

 28 30  0     1  0            999 V2000
    5.0174    1.4738   -0.0638 Cl  0  0  0  0  0  1           0  0  0
   -0.0804   -2.5593    6.1627 O   0  0  0  0  0  2           0  0  0
    1.1225    2.9977   -0.8874 O   0  0  0  0  0  2           0  0  0
    0.9405   -0.5482    6.4938 O   0  0  0  0  0  2           0  0  0
    1.4526    0.0000   -0.0000 N   0  0  0  0  0  3           0  0  0
    3.5362   -0.7636   -0.0243 N   0  0  0  0  0  3           0  0  0
    3.5476    0.6067   -0.0388 C   0  0  0  0  0  4           0  0  0
    2.2673   -1.1150    0.0000 C   0  0  0  0  0  4           0  0  0
    2.2620    1.1225   -0.0230 C   0  0  0  0  0  4           0  0  0
   -2.0534    0.0028    5.4200 C   0  0  0  0  0  4           0  0  0
   -1.5335    0.0015    4.0456 C   0  0  0  0  0  4           0  0  0
   -1.3851   -0.5949    6.5122 C   0  0  0  0  0  4           0  0  0
   -0.5423    0.0000    1.3965 C   0  0  0  0  0  4           0  0  0
   -3.2692    0.6612    5.6965 C   0  0  0  0  0  4           0  0  0
   -1.2917   -1.2040    3.3703 C   0  0  0  0  0  4           0  0  0
   -1.2664    1.2059    3.3782 C   0  0  0  0  0  4           0  0  0
   -1.8911   -0.5016    7.8172 C   0  0  0  0  0  4           0  0  0
   -0.8005   -1.2048    2.0615 C   0  0  0  0  0  4           0  0  0
   -0.7741    1.2054    2.0700 C   0  0  0  0  0  4           0  0  0
   -3.7798    0.7430    6.9954 C   0  0  0  0  0  4           0  0  0
   -3.0879    0.1674    8.0550 C   0  0  0  0  0  4           0  0  0
   -0.1339   -1.3586    6.3673 C   0  0  0  0  0  4           0  0  0
    1.8272    2.4870   -0.0227 C   0  0  0  0  0  4           0  0  0
   -0.0000    0.0000    0.0000 C   0  0  0  0  0  4           0  0  0
    1.7835   -2.5224    0.0227 C   0  0  0  0  0  4           0  0  0
    2.4500   -4.9583    0.0395 C   0  0  0  0  0  4           0  0  0
    2.7528   -5.8319    1.0059 C   0  0  0  0  0  4           0  0  0
    2.9279   -3.5356    0.0167 C   0  0  0  0  0  4           0  0  0
  1  7  1  0     0  0
  2 22  2  0     0  0
  3 23  2  0     0  0
  4 22  1  0     0  0
  5  8  1  0     0  0
  5  9  1  0     0  0
  5 24  1  0     0  0
  6  7  1  0     0  0
  6  8  2  0     0  0
  7  9  2  0     0  0
  8 25  1  0     0  0
  9 23  1  0     0  0
 10 11  1  0     0  0
 10 12  1  0     0  0
 10 14  2  0     0  0
 11 15  2  0     0  0
 11 16  1  0     0  0
 12 17  2  0     0  0
 12 22  1  0     0  0
 13 18  2  0     0  0
 13 19  1  0     0  0
 13 24  1  0     0  0
 14 20  1  0     0  0
 15 18  1  0     0  0
 16 19  2  0     0  0
 17 21  1  0     0  0
 20 21  2  0     0  0
 25 28  1  0     0  0
 26 27  2  0     0  0
 26 28  1  0     0  0
M  END
> <standard_type>
pIC50

> <# Confs.>
25

> <canonical_smiles>
ClC(N=C1CCC=C)=C(C=O)N1CC2=CC=C(C3=CC=CC=C3C(O)=O)C=C2

> <standard_relation>
=

> <Publication_ID>
nan

> <predicted_activity_value>
6.853871964321762

> <actual_activity_value>
6.638272163982407

> <Compound>
10

> <standard_units>
nM

> hash
10268325833990702466

$$$$
10_
XXILIB    08252103443D 0   0.00000     0.00000

 28 30  0     1  0            999 V2000
    5.0174    1.4738   -0.0638 Cl  0  0  0  0  0  1           0  0  0
   -4.2140   -2.3303    4.4726 O   0  0  0  0  0  2           0  0  0
    1.1225    2.9977   -0.8874 O   0  0  0  0  0  2           0  0  0
   -5.0941   -0.2301    4.3656 O   0  0  0  0  0  2           0  0  0
    1.4526    0.0000   -0.0000 N   0  0  0  0  0  3           0  0  0
    3.5362   -0.7636   -0.0243 N   0  0  0  0  0  3           0  0  0
    3.5476    0.6067   -0.0388 C   0  0  0  0  0  4           0  0  0
    2.2673   -1.1150    0.0000 C   0  0  0  0  0  4           0  0  0
    2.2620    1.1225   -0.0230 C   0  0  0  0  0  4           0  0  0
   -2.0534    0.0028    5.4200 C   0  0  0  0  0  4           0  0  0
   -1.5335    0.0015    4.0456 C   0  0  0  0  0  4           0  0  0
   -3.2890   -0.5734    5.7919 C   0  0  0  0  0  4           0  0  0
   -0.5423    0.0000    1.3965 C   0  0  0  0  0  4           0  0  0
   -1.2783    0.5746    6.4497 C   0  0  0  0  0  4           0  0  0
   -1.2917   -1.2040    3.3703 C   0  0  0  0  0  4           0  0  0
   -1.2664    1.2059    3.3782 C   0  0  0  0  0  4           0  0  0
   -3.7043   -0.6081    7.1314 C   0  0  0  0  0  4           0  0  0
   -0.8005   -1.2048    2.0615 C   0  0  0  0  0  4           0  0  0
   -0.7741    1.2054    2.0700 C   0  0  0  0  0  4           0  0  0
   -1.6985    0.5512    7.7829 C   0  0  0  0  0  4           0  0  0
   -2.9072   -0.0452    8.1236 C   0  0  0  0  0  4           0  0  0
   -4.2258   -1.1614    4.8192 C   0  0  0  0  0  4           0  0  0
    1.8272    2.4870   -0.0227 C   0  0  0  0  0  4           0  0  0
   -0.0000    0.0000    0.0000 C   0  0  0  0  0  4           0  0  0
    1.7835   -2.5224    0.0227 C   0  0  0  0  0  4           0  0  0
    2.4500   -4.9583    0.0395 C   0  0  0  0  0  4           0  0  0
    2.7528   -5.8319    1.0059 C   0  0  0  0  0  4           0  0  0
    2.9279   -3.5356    0.0167 C   0  0  0  0  0  4           0  0  0
  1  7  1  0     0  0
  2 22  2  0     0  0
  3 23  2  0     0  0
  4 22  1  0     0  0
  5  8  1  0     0  0
  5  9  1  0     0  0
  5 24  1  0     0  0
  6  7  1  0     0  0
  6  8  2  0     0  0
  7  9  2  0     0  0
  8 25  1  0     0  0
  9 23  1  0     0  0
 10 11  1  0     0  0
 10 12  1  0     0  0
 10 14  2  0     0  0
 11 15  2  0     0  0
 11 16  1  0     0  0
 12 17  2  0     0  0
 12 22  1  0     0  0
 13 18  2  0     0  0
 13 19  1  0     0  0
 13 24  1  0     0  0
 14 20  1  0     0  0
 15 18  1  0     0  0
 16 19  2  0     0  0
 17 21  1  0     0  0
 20 21  2  0     0  0
 25 28  1  0     0  0
 26 27  2  0     0  0
 26 28  1  0     0  0
M  END
> <standard_type>
pIC50

> <# Confs.>
25

> <canonical_smiles>
ClC(N=C1CCC=C)=C(C=O)N1CC2=CC=C(C3=CC=CC=C3C(O)=O)C=C2

> <standard_relation>
=

> <Publication_ID>
nan

> <predicted_activity_value>
6.853871964321762

> <actual_activity_value>
6.638272163982407

> <Compound>
10

> <standard_units>
nM

> hash
10268325833990702466

$$$$
11_
XXILIB    08252103443D 0   0.00000     0.00000

 32 35  0     1  0            999 V2000
    5.8054    0.5522    0.1469 O   0  0  0  0  0  2           0  0  0
    1.5680    2.9191    1.3704 O   0  0  0  0  0  2           0  0  0
    4.7700    2.4969    0.1594 O   0  5  0  0  0  1           0  0  0
   -5.3910   -1.4857    2.9583 N   0  0  0  0  0  3           0  0  0
   -5.3131   -2.6254    3.6287 N   0  0  0  0  0  3           0  0  0
   -4.6535   -0.6174    3.6626 N   0  0  0  0  0  3           0  0  0
   -4.5342   -2.4845    4.7522 N   0  0  0  0  0  3           0  0  0
    1.4527    0.0000    0.0000 N   0  0  0  0  0  3           0  0  0
    3.5401   -0.7716    0.0368 N   0  0  0  0  0  3           0  0  0
    4.7921    1.2608    0.1281 N   0  3  0  0  0  4           0  0  0
   -4.1254   -1.2283    4.7710 C   0  0  0  0  0  4           0  0  0
    2.2681   -1.1183    0.0000 C   0  0  0  0  0  4           0  0  0
    3.5383    0.5940    0.0639 C   0  0  0  0  0  4           0  0  0
    2.2634    1.1226    0.0301 C   0  0  0  0  0  4           0  0  0
   -3.2810   -0.5819    5.7575 C   0  0  0  0  0  4           0  0  0
   -2.0403    0.0008    5.4116 C   0  0  0  0  0  4           0  0  0
   -1.5266    0.0001    4.0478 C   0  0  0  0  0  4           0  0  0
   -0.5414   -0.0000    1.3968 C   0  0  0  0  0  4           0  0  0
   -3.7198   -0.5535    7.0914 C   0  0  0  0  0  4           0  0  0
   -1.2752    0.6017    6.4296 C   0  0  0  0  0  4           0  0  0
   -1.2875   -1.2050    3.3709 C   0  0  0  0  0  4           0  0  0
   -1.2595    1.2049    3.3811 C   0  0  0  0  0  4           0  0  0
   -0.7989   -1.2050    2.0612 C   0  0  0  0  0  4           0  0  0
   -0.7709    1.2048    2.0716 C   0  0  0  0  0  4           0  0  0
   -2.9446    0.0484    8.0815 C   0  0  0  0  0  4           0  0  0
   -1.7232    0.6250    7.7514 C   0  0  0  0  0  4           0  0  0
    1.7588    2.5128    0.0217 C   0  0  0  0  0  4           0  0  0
    0.0000   -0.0000    0.0000 C   0  0  0  0  0  4           0  0  0
    1.7802   -2.5220   -0.0360 C   0  0  0  0  0  4           0  0  0
    2.5555   -3.3808   -1.0306 C   0  0  0  0  0  4           0  0  0
    2.0623   -4.8249   -1.0756 C   0  0  0  0  0  4           0  0  0
    2.8335   -5.6842   -2.0666 C   0  0  0  0  0  4           0  0  0
  1 10  2  0     0  0
  2 27  1  0     0  0
  3 10  1  0     0  0
  4  5  2  0     0  0
  4  6  1  0     0  0
  5  7  1  0     0  0
  6 11  1  0     0  0
  7 11  2  0     0  0
  8 12  1  0     0  0
  8 14  1  0     0  0
  8 28  1  0     0  0
  9 12  2  0     0  0
  9 13  1  0     0  0
 10 13  1  0     0  0
 11 15  1  0     0  0
 12 29  1  0     0  0
 13 14  2  0     0  0
 14 27  1  0     0  0
 15 16  1  0     0  0
 15 19  2  0     0  0
 16 17  1  0     0  0
 16 20  2  0     0  0
 17 21  2  0     0  0
 17 22  1  0     0  0
 18 23  2  0     0  0
 18 24  1  0     0  0
 18 28  1  0     0  0
 19 25  1  0     0  0
 20 26  1  0     0  0
 21 23  1  0     0  0
 22 24  2  0     0  0
 25 26  2  0     0  0
 29 30  1  0     0  0
 30 31  1  0     0  0
 31 32  1  0     0  0
M  CHG  2   3  -1  10   1
M  END
> <standard_type>
pIC50

> <# Confs.>
25

> <canonical_smiles>
CCCCC1=NC([N+]([O-])=O)=C(CO)N1CC2=CC=C(C3=CC=CC=C3C4=NN=NN4)C=C2

> <standard_relation>
=

> <Publication_ID>
nan

> <predicted_activity_value>
7.236572006437063

> <actual_activity_value>
6.585026652029182

> <Compound>
11

> <standard_units>
nM

> hash
10037114687936097660

$$$$
11_
XXILIB    08252103443D 0   0.00000     0.00000

 32 35  0     1  0            999 V2000
    5.8054    0.5522    0.1469 O   0  0  0  0  0  2           0  0  0
    1.5680    2.9191    1.3704 O   0  0  0  0  0  2           0  0  0
    4.7700    2.4969    0.1594 O   0  5  0  0  0  1           0  0  0
   -5.3910   -1.4857    2.9583 N   0  0  0  0  0  3           0  0  0
   -5.3131   -2.6254    3.6287 N   0  0  0  0  0  3           0  0  0
   -4.6535   -0.6174    3.6626 N   0  0  0  0  0  3           0  0  0
   -4.5342   -2.4845    4.7522 N   0  0  0  0  0  3           0  0  0
    1.4527    0.0000    0.0000 N   0  0  0  0  0  3           0  0  0
    3.5401   -0.7716    0.0368 N   0  0  0  0  0  3           0  0  0
    4.7921    1.2608    0.1281 N   0  3  0  0  0  4           0  0  0
   -4.1254   -1.2283    4.7710 C   0  0  0  0  0  4           0  0  0
    2.2681   -1.1183    0.0000 C   0  0  0  0  0  4           0  0  0
    3.5383    0.5940    0.0639 C   0  0  0  0  0  4           0  0  0
    2.2634    1.1226    0.0301 C   0  0  0  0  0  4           0  0  0
   -3.2810   -0.5819    5.7575 C   0  0  0  0  0  4           0  0  0
   -2.0403    0.0008    5.4116 C   0  0  0  0  0  4           0  0  0
   -1.5266    0.0001    4.0478 C   0  0  0  0  0  4           0  0  0
   -0.5414   -0.0000    1.3968 C   0  0  0  0  0  4           0  0  0
   -3.7198   -0.5535    7.0914 C   0  0  0  0  0  4           0  0  0
   -1.2752    0.6017    6.4296 C   0  0  0  0  0  4           0  0  0
   -1.2875   -1.2050    3.3709 C   0  0  0  0  0  4           0  0  0
   -1.2595    1.2049    3.3811 C   0  0  0  0  0  4           0  0  0
   -0.7989   -1.2050    2.0612 C   0  0  0  0  0  4           0  0  0
   -0.7709    1.2048    2.0716 C   0  0  0  0  0  4           0  0  0
   -2.9446    0.0484    8.0815 C   0  0  0  0  0  4           0  0  0
   -1.7232    0.6250    7.7514 C   0  0  0  0  0  4           0  0  0
    1.7588    2.5128    0.0217 C   0  0  0  0  0  4           0  0  0
    0.0000   -0.0000    0.0000 C   0  0  0  0  0  4           0  0  0
    1.7802   -2.5220   -0.0360 C   0  0  0  0  0  4           0  0  0
    2.5555   -3.3808   -1.0306 C   0  0  0  0  0  4           0  0  0
    2.4597   -2.8601   -2.4624 C   0  0  0  0  0  4           0  0  0
    3.2319   -3.7144   -3.4570 C   0  0  0  0  0  4           0  0  0
  1 10  2  0     0  0
  2 27  1  0     0  0
  3 10  1  0     0  0
  4  5  2  0     0  0
  4  6  1  0     0  0
  5  7  1  0     0  0
  6 11  1  0     0  0
  7 11  2  0     0  0
  8 12  1  0     0  0
  8 14  1  0     0  0
  8 28  1  0     0  0
  9 12  2  0     0  0
  9 13  1  0     0  0
 10 13  1  0     0  0
 11 15  1  0     0  0
 12 29  1  0     0  0
 13 14  2  0     0  0
 14 27  1  0     0  0
 15 16  1  0     0  0
 15 19  2  0     0  0
 16 17  1  0     0  0
 16 20  2  0     0  0
 17 21  2  0     0  0
 17 22  1  0     0  0
 18 23  2  0     0  0
 18 24  1  0     0  0
 18 28  1  0     0  0
 19 25  1  0     0  0
 20 26  1  0     0  0
 21 23  1  0     0  0
 22 24  2  0     0  0
 25 26  2  0     0  0
 29 30  1  0     0  0
 30 31  1  0     0  0
 31 32  1  0     0  0
M  CHG  2   3  -1  10   1
M  END
> <standard_type>
pIC50

> <# Confs.>
25

> <canonical_smiles>
CCCCC1=NC([N+]([O-])=O)=C(CO)N1CC2=CC=C(C3=CC=CC=C3C4=NN=NN4)C=C2

> <standard_relation>
=

> <Publication_ID>
nan

> <predicted_activity_value>
7.236572006437063

> <actual_activity_value>
6.585026652029182

> <Compound>
11

> <standard_units>
nM

> hash
10037114687936097660

$$$$
11_
XXILIB    08252103443D 0   0.00000     0.00000

 32 35  0     1  0            999 V2000
    5.8054    0.5522    0.1469 O   0  0  0  0  0  2           0  0  0
    1.5680    2.9191    1.3704 O   0  0  0  0  0  2           0  0  0
    4.7700    2.4969    0.1594 O   0  5  0  0  0  1           0  0  0
    2.0694   -1.5543    5.7656 N   0  0  0  0  0  3           0  0  0
    1.5501   -2.6924    6.2009 N   0  0  0  0  0  3           0  0  0
    1.0660   -0.6692    5.8262 N   0  0  0  0  0  3           0  0  0
    0.2261   -2.5348    6.5343 N   0  0  0  0  0  3           0  0  0
    1.4527    0.0000    0.0000 N   0  0  0  0  0  3           0  0  0
    3.5401   -0.7716    0.0368 N   0  0  0  0  0  3           0  0  0
    4.7921    1.2608    0.1281 N   0  3  0  0  0  4           0  0  0
   -0.0732   -1.2700    6.2972 C   0  0  0  0  0  4           0  0  0
    2.2681   -1.1183    0.0000 C   0  0  0  0  0  4           0  0  0
    3.5383    0.5940    0.0639 C   0  0  0  0  0  4           0  0  0
    2.2634    1.1226    0.0301 C   0  0  0  0  0  4           0  0  0
   -1.3497   -0.6073    6.4849 C   0  0  0  0  0  4           0  0  0
   -2.0403    0.0008    5.4116 C   0  0  0  0  0  4           0  0  0
   -1.5266    0.0001    4.0478 C   0  0  0  0  0  4           0  0  0
   -0.5414    0.0000    1.3968 C   0  0  0  0  0  4           0  0  0
   -1.8946   -0.5689    7.7789 C   0  0  0  0  0  4           0  0  0
   -3.2707    0.6316    5.6781 C   0  0  0  0  0  4           0  0  0
   -1.2875   -1.2050    3.3709 C   0  0  0  0  0  4           0  0  0
   -1.2595    1.2049    3.3811 C   0  0  0  0  0  4           0  0  0
   -0.7989   -1.2050    2.0612 C   0  0  0  0  0  4           0  0  0
   -0.7709    1.2048    2.0716 C   0  0  0  0  0  4           0  0  0
   -3.1151    0.0610    8.0173 C   0  0  0  0  0  4           0  0  0
   -3.8024    0.6614    6.9682 C   0  0  0  0  0  4           0  0  0
    1.7588    2.5128    0.0217 C   0  0  0  0  0  4           0  0  0
    0.0000    0.0000    0.0000 C   0  0  0  0  0  4           0  0  0
    1.7802   -2.5220   -0.0360 C   0  0  0  0  0  4           0  0  0
    2.5555   -3.3808   -1.0306 C   0  0  0  0  0  4           0  0  0
    2.0623   -4.8249   -1.0756 C   0  0  0  0  0  4           0  0  0
    2.8335   -5.6842   -2.0666 C   0  0  0  0  0  4           0  0  0
  1 10  2  0     0  0
  2 27  1  0     0  0
  3 10  1  0     0  0
  4  5  2  0     0  0
  4  6  1  0     0  0
  5  7  1  0     0  0
  6 11  1  0     0  0
  7 11  2  0     0  0
  8 12  1  0     0  0
  8 14  1  0     0  0
  8 28  1  0     0  0
  9 12  2  0     0  0
  9 13  1  0     0  0
 10 13  1  0     0  0
 11 15  1  0     0  0
 12 29  1  0     0  0
 13 14  2  0     0  0
 14 27  1  0     0  0
 15 16  1  0     0  0
 15 19  2  0     0  0
 16 17  1  0     0  0
 16 20  2  0     0  0
 17 21  2  0     0  0
 17 22  1  0     0  0
 18 23  2  0     0  0
 18 24  1  0     0  0
 18 28  1  0     0  0
 19 25  1  0     0  0
 20 26  1  0     0  0
 21 23  1  0     0  0
 22 24  2  0     0  0
 25 26  2  0     0  0
 29 30  1  0     0  0
 30 31  1  0     0  0
 31 32  1  0     0  0
M  CHG  2   3  -1  10   1
M  END
> <standard_type>
pIC50

> <# Confs.>
25

> <canonical_smiles>
CCCCC1=NC([N+]([O-])=O)=C(CO)N1CC2=CC=C(C3=CC=CC=C3C4=NN=NN4)C=C2

> <standard_relation>
=

> <Publication_ID>
nan

> <predicted_activity_value>
7.236572006437063

> <actual_activity_value>
6.585026652029182

> <Compound>
11

> <standard_units>
nM

> hash
10037114687936097660

$$$$
11_
XXILIB    08252103443D 0   0.00000     0.00000

 32 35  0     1  0            999 V2000
    5.8054    0.5522    0.1469 O   0  0  0  0  0  2           0  0  0
    1.5680    2.9191    1.3704 O   0  0  0  0  0  2           0  0  0
    4.7700    2.4969    0.1594 O   0  5  0  0  0  1           0  0  0
    2.0694   -1.5543    5.7656 N   0  0  0  0  0  3           0  0  0
    1.5501   -2.6924    6.2009 N   0  0  0  0  0  3           0  0  0
    1.0660   -0.6692    5.8262 N   0  0  0  0  0  3           0  0  0
    0.2261   -2.5348    6.5343 N   0  0  0  0  0  3           0  0  0
    1.4527    0.0000    0.0000 N   0  0  0  0  0  3           0  0  0
    3.5401   -0.7716    0.0368 N   0  0  0  0  0  3           0  0  0
    4.7921    1.2608    0.1281 N   0  3  0  0  0  4           0  0  0
   -0.0732   -1.2700    6.2972 C   0  0  0  0  0  4           0  0  0
    2.2681   -1.1183    0.0000 C   0  0  0  0  0  4           0  0  0
    3.5383    0.5940    0.0639 C   0  0  0  0  0  4           0  0  0
    2.2634    1.1226    0.0301 C   0  0  0  0  0  4           0  0  0
   -1.3497   -0.6073    6.4849 C   0  0  0  0  0  4           0  0  0
   -2.0403    0.0008    5.4116 C   0  0  0  0  0  4           0  0  0
   -1.5266    0.0001    4.0478 C   0  0  0  0  0  4           0  0  0
   -0.5414    0.0000    1.3968 C   0  0  0  0  0  4           0  0  0
   -1.8946   -0.5689    7.7789 C   0  0  0  0  0  4           0  0  0
   -3.2707    0.6316    5.6781 C   0  0  0  0  0  4           0  0  0
   -1.2875   -1.2050    3.3709 C   0  0  0  0  0  4           0  0  0
   -1.2595    1.2049    3.3811 C   0  0  0  0  0  4           0  0  0
   -0.7989   -1.2050    2.0612 C   0  0  0  0  0  4           0  0  0
   -0.7709    1.2048    2.0716 C   0  0  0  0  0  4           0  0  0
   -3.1151    0.0610    8.0173 C   0  0  0  0  0  4           0  0  0
   -3.8024    0.6614    6.9682 C   0  0  0  0  0  4           0  0  0
    1.7588    2.5128    0.0217 C   0  0  0  0  0  4           0  0  0
    0.0000    0.0000    0.0000 C   0  0  0  0  0  4           0  0  0
    1.7802   -2.5220   -0.0360 C   0  0  0  0  0  4           0  0  0
    2.5555   -3.3808   -1.0306 C   0  0  0  0  0  4           0  0  0
    2.4597   -2.8601   -2.4624 C   0  0  0  0  0  4           0  0  0
    3.2319   -3.7144   -3.4570 C   0  0  0  0  0  4           0  0  0
  1 10  2  0     0  0
  2 27  1  0     0  0
  3 10  1  0     0  0
  4  5  2  0     0  0
  4  6  1  0     0  0
  5  7  1  0     0  0
  6 11  1  0     0  0
  7 11  2  0     0  0
  8 12  1  0     0  0
  8 14  1  0     0  0
  8 28  1  0     0  0
  9 12  2  0     0  0
  9 13  1  0     0  0
 10 13  1  0     0  0
 11 15  1  0     0  0
 12 29  1  0     0  0
 13 14  2  0     0  0
 14 27  1  0     0  0
 15 16  1  0     0  0
 15 19  2  0     0  0
 16 17  1  0     0  0
 16 20  2  0     0  0
 17 21  2  0     0  0
 17 22  1  0     0  0
 18 23  2  0     0  0
 18 24  1  0     0  0
 18 28  1  0     0  0
 19 25  1  0     0  0
 20 26  1  0     0  0
 21 23  1  0     0  0
 22 24  2  0     0  0
 25 26  2  0     0  0
 29 30  1  0     0  0
 30 31  1  0     0  0
 31 32  1  0     0  0
M  CHG  2   3  -1  10   1
M  END
> <standard_type>
pIC50

> <# Confs.>
25

> <canonical_smiles>
CCCCC1=NC([N+]([O-])=O)=C(CO)N1CC2=CC=C(C3=CC=CC=C3C4=NN=NN4)C=C2

> <standard_relation>
=

> <Publication_ID>
nan

> <predicted_activity_value>
7.236572006437063

> <actual_activity_value>
6.585026652029182

> <Compound>
11

> <standard_units>
nM

> hash
10037114687936097660

$$$$
11_
XXILIB    08252103443D 0   0.00000     0.00000

 32 35  0     1  0            999 V2000
    5.8054    0.5522    0.1469 O   0  0  0  0  0  2           0  0  0
    1.5680    2.9191    1.3704 O   0  0  0  0  0  2           0  0  0
    4.7700    2.4969    0.1594 O   0  5  0  0  0  1           0  0  0
    2.0694   -1.5543    5.7656 N   0  0  0  0  0  3           0  0  0
    1.5501   -2.6924    6.2009 N   0  0  0  0  0  3           0  0  0
    1.0660   -0.6692    5.8262 N   0  0  0  0  0  3           0  0  0
    0.2261   -2.5348    6.5343 N   0  0  0  0  0  3           0  0  0
    1.4527    0.0000    0.0000 N   0  0  0  0  0  3           0  0  0
    3.5401   -0.7716    0.0368 N   0  0  0  0  0  3           0  0  0
    4.7921    1.2608    0.1281 N   0  3  0  0  0  4           0  0  0
   -0.0732   -1.2700    6.2972 C   0  0  0  0  0  4           0  0  0
    2.2681   -1.1183    0.0000 C   0  0  0  0  0  4           0  0  0
    3.5383    0.5940    0.0639 C   0  0  0  0  0  4           0  0  0
    2.2634    1.1226    0.0301 C   0  0  0  0  0  4           0  0  0
   -1.3497   -0.6073    6.4849 C   0  0  0  0  0  4           0  0  0
   -2.0403    0.0008    5.4116 C   0  0  0  0  0  4           0  0  0
   -1.5266    0.0001    4.0478 C   0  0  0  0  0  4           0  0  0
   -0.5414    0.0000    1.3968 C   0  0  0  0  0  4           0  0  0
   -1.8946   -0.5689    7.7789 C   0  0  0  0  0  4           0  0  0
   -3.2707    0.6316    5.6781 C   0  0  0  0  0  4           0  0  0
   -1.2875   -1.2050    3.3709 C   0  0  0  0  0  4           0  0  0
   -1.2595    1.2049    3.3811 C   0  0  0  0  0  4           0  0  0
   -0.7989   -1.2050    2.0612 C   0  0  0  0  0  4           0  0  0
   -0.7709    1.2048    2.0716 C   0  0  0  0  0  4           0  0  0
   -3.1151    0.0610    8.0173 C   0  0  0  0  0  4           0  0  0
   -3.8024    0.6614    6.9682 C   0  0  0  0  0  4           0  0  0
    1.7588    2.5128    0.0217 C   0  0  0  0  0  4           0  0  0
    0.0000    0.0000    0.0000 C   0  0  0  0  0  4           0  0  0
    1.7802   -2.5220   -0.0360 C   0  0  0  0  0  4           0  0  0
    2.5079   -3.4155    0.9639 C   0  0  0  0  0  4           0  0  0
    2.0144   -4.8599    0.9352 C   0  0  0  0  0  4           0  0  0
    2.7382   -5.7537    1.9313 C   0  0  0  0  0  4           0  0  0
  1 10  2  0     0  0
  2 27  1  0     0  0
  3 10  1  0     0  0
  4  5  2  0     0  0
  4  6  1  0     0  0
  5  7  1  0     0  0
  6 11  1  0     0  0
  7 11  2  0     0  0
  8 12  1  0     0  0
  8 14  1  0     0  0
  8 28  1  0     0  0
  9 12  2  0     0  0
  9 13  1  0     0  0
 10 13  1  0     0  0
 11 15  1  0     0  0
 12 29  1  0     0  0
 13 14  2  0     0  0
 14 27  1  0     0  0
 15 16  1  0     0  0
 15 19  2  0     0  0
 16 17  1  0     0  0
 16 20  2  0     0  0
 17 21  2  0     0  0
 17 22  1  0     0  0
 18 23  2  0     0  0
 18 24  1  0     0  0
 18 28  1  0     0  0
 19 25  1  0     0  0
 20 26  1  0     0  0
 21 23  1  0     0  0
 22 24  2  0     0  0
 25 26  2  0     0  0
 29 30  1  0     0  0
 30 31  1  0     0  0
 31 32  1  0     0  0
M  CHG  2   3  -1  10   1
M  END
> <standard_type>
pIC50

> <# Confs.>
25

> <canonical_smiles>
CCCCC1=NC([N+]([O-])=O)=C(CO)N1CC2=CC=C(C3=CC=CC=C3C4=NN=NN4)C=C2

> <standard_relation>
=

> <Publication_ID>
nan

> <predicted_activity_value>
7.236572006437063

> <actual_activity_value>
6.585026652029182

> <Compound>
11

> <standard_units>
nM

> hash
10037114687936097660

$$$$
11_
XXILIB    08252103443D 0   0.00000     0.00000

 32 35  0     1  0            999 V2000
    5.8054    0.5522    0.1469 O   0  0  0  0  0  2           0  0  0
    1.5680    2.9191    1.3704 O   0  0  0  0  0  2           0  0  0
    4.7700    2.4969    0.1594 O   0  5  0  0  0  1           0  0  0
   -5.3910   -1.4857    2.9583 N   0  0  0  0  0  3           0  0  0
   -5.3131   -2.6254    3.6287 N   0  0  0  0  0  3           0  0  0
   -4.6535   -0.6174    3.6626 N   0  0  0  0  0  3           0  0  0
   -4.5342   -2.4845    4.7522 N   0  0  0  0  0  3           0  0  0
    1.4527    0.0000    0.0000 N   0  0  0  0  0  3           0  0  0
    3.5401   -0.7716    0.0368 N   0  0  0  0  0  3           0  0  0
    4.7921    1.2608    0.1281 N   0  3  0  0  0  4           0  0  0
   -4.1254   -1.2283    4.7710 C   0  0  0  0  0  4           0  0  0
    2.2681   -1.1183    0.0000 C   0  0  0  0  0  4           0  0  0
    3.5383    0.5940    0.0639 C   0  0  0  0  0  4           0  0  0
    2.2634    1.1226    0.0301 C   0  0  0  0  0  4           0  0  0
   -3.2810   -0.5819    5.7575 C   0  0  0  0  0  4           0  0  0
   -2.0403    0.0008    5.4116 C   0  0  0  0  0  4           0  0  0
   -1.5266    0.0001    4.0478 C   0  0  0  0  0  4           0  0  0
   -0.5414   -0.0000    1.3968 C   0  0  0  0  0  4           0  0  0
   -3.7198   -0.5535    7.0914 C   0  0  0  0  0  4           0  0  0
   -1.2752    0.6017    6.4296 C   0  0  0  0  0  4           0  0  0
   -1.2875   -1.2050    3.3709 C   0  0  0  0  0  4           0  0  0
   -1.2595    1.2049    3.3811 C   0  0  0  0  0  4           0  0  0
   -0.7989   -1.2050    2.0612 C   0  0  0  0  0  4           0  0  0
   -0.7709    1.2048    2.0716 C   0  0  0  0  0  4           0  0  0
   -2.9446    0.0484    8.0815 C   0  0  0  0  0  4           0  0  0
   -1.7232    0.6250    7.7514 C   0  0  0  0  0  4           0  0  0
    1.7588    2.5128    0.0217 C   0  0  0  0  0  4           0  0  0
    0.0000   -0.0000    0.0000 C   0  0  0  0  0  4           0  0  0
    1.7802   -2.5220   -0.0360 C   0  0  0  0  0  4           0  0  0
    2.5079   -3.4155    0.9639 C   0  0  0  0  0  4           0  0  0
    2.0144   -4.8599    0.9352 C   0  0  0  0  0  4           0  0  0
    2.7382   -5.7537    1.9313 C   0  0  0  0  0  4           0  0  0
  1 10  2  0     0  0
  2 27  1  0     0  0
  3 10  1  0     0  0
  4  5  2  0     0  0
  4  6  1  0     0  0
  5  7  1  0     0  0
  6 11  1  0     0  0
  7 11  2  0     0  0
  8 12  1  0     0  0
  8 14  1  0     0  0
  8 28  1  0     0  0
  9 12  2  0     0  0
  9 13  1  0     0  0
 10 13  1  0     0  0
 11 15  1  0     0  0
 12 29  1  0     0  0
 13 14  2  0     0  0
 14 27  1  0     0  0
 15 16  1  0     0  0
 15 19  2  0     0  0
 16 17  1  0     0  0
 16 20  2  0     0  0
 17 21  2  0     0  0
 17 22  1  0     0  0
 18 23  2  0     0  0
 18 24  1  0     0  0
 18 28  1  0     0  0
 19 25  1  0     0  0
 20 26  1  0     0  0
 21 23  1  0     0  0
 22 24  2  0     0  0
 25 26  2  0     0  0
 29 30  1  0     0  0
 30 31  1  0     0  0
 31 32  1  0     0  0
M  CHG  2   3  -1  10   1
M  END
> <standard_type>
pIC50

> <# Confs.>
25

> <canonical_smiles>
CCCCC1=NC([N+]([O-])=O)=C(CO)N1CC2=CC=C(C3=CC=CC=C3C4=NN=NN4)C=C2

> <standard_relation>
=

> <Publication_ID>
nan

> <predicted_activity_value>
7.236572006437063

> <actual_activity_value>
6.585026652029182

> <Compound>
11

> <standard_units>
nM

> hash
10037114687936097660

$$$$
11_
XXILIB    08252103443D 0   0.00000     0.00000

 32 35  0     1  0            999 V2000
    5.8054   -0.5522   -0.1469 O   0  0  0  0  0  2           0  0  0
    1.5680   -2.9191   -1.3704 O   0  0  0  0  0  2           0  0  0
    4.7700   -2.4969   -0.1594 O   0  5  0  0  0  1           0  0  0
   -0.0711    3.8490    5.0201 N   0  0  0  0  0  3           0  0  0
   -1.2459    4.4322    5.2050 N   0  0  0  0  0  3           0  0  0
   -0.2609    2.5688    5.3651 N   0  0  0  0  0  3           0  0  0
   -2.1764    3.5320    5.6660 N   0  0  0  0  0  3           0  0  0
    1.4527   -0.0000   -0.0000 N   0  0  0  0  0  3           0  0  0
    3.5401    0.7716   -0.0368 N   0  0  0  0  0  3           0  0  0
    4.7921   -1.2608   -0.1281 N   0  3  0  0  0  4           0  0  0
   -1.5569    2.3693    5.7665 C   0  0  0  0  0  4           0  0  0
    2.2681    1.1183    0.0000 C   0  0  0  0  0  4           0  0  0
    3.5383   -0.5940   -0.0639 C   0  0  0  0  0  4           0  0  0
    2.2634   -1.1226   -0.0301 C   0  0  0  0  0  4           0  0  0
   -2.1070    1.1035    6.2125 C   0  0  0  0  0  4           0  0  0
   -2.1245   -0.0382    5.3789 C   0  0  0  0  0  4           0  0  0
   -1.5892   -0.0278    4.0235 C   0  0  0  0  0  4           0  0  0
   -0.5414    0.0000    1.3968 C   0  0  0  0  0  4           0  0  0
   -2.6431    1.0318    7.5087 C   0  0  0  0  0  4           0  0  0
   -2.6844   -1.2277    5.8835 C   0  0  0  0  0  4           0  0  0
   -2.1102    0.8396    3.0521 C   0  0  0  0  0  4           0  0  0
   -0.5406   -0.8855    3.6597 C   0  0  0  0  0  4           0  0  0
   -1.5934    0.8521    1.7533 C   0  0  0  0  0  4           0  0  0
   -0.0240   -0.8730    2.3611 C   0  0  0  0  0  4           0  0  0
   -3.1911   -0.1579    7.9860 C   0  0  0  0  0  4           0  0  0
   -3.2124   -1.2866    7.1742 C   0  0  0  0  0  4           0  0  0
    1.7588   -2.5128   -0.0217 C   0  0  0  0  0  4           0  0  0
    0.0000    0.0000    0.0000 C   0  0  0  0  0  4           0  0  0
    1.7802    2.5220    0.0360 C   0  0  0  0  0  4           0  0  0
    1.5560    3.0948   -1.3602 C   0  0  0  0  0  4           0  0  0
    1.0547    4.5365   -1.3348 C   0  0  0  0  0  4           0  0  0
    0.8300    5.1108   -2.7257 C   0  0  0  0  0  4           0  0  0
  1 10  2  0     0  0
  2 27  1  0     0  0
  3 10  1  0     0  0
  4  5  2  0     0  0
  4  6  1  0     0  0
  5  7  1  0     0  0
  6 11  1  0     0  0
  7 11  2  0     0  0
  8 12  1  0     0  0
  8 14  1  0     0  0
  8 28  1  0     0  0
  9 12  2  0     0  0
  9 13  1  0     0  0
 10 13  1  0     0  0
 11 15  1  0     0  0
 12 29  1  0     0  0
 13 14  2  0     0  0
 14 27  1  0     0  0
 15 16  1  0     0  0
 15 19  2  0     0  0
 16 17  1  0     0  0
 16 20  2  0     0  0
 17 21  2  0     0  0
 17 22  1  0     0  0
 18 23  2  0     0  0
 18 24  1  0     0  0
 18 28  1  0     0  0
 19 25  1  0     0  0
 20 26  1  0     0  0
 21 23  1  0     0  0
 22 24  2  0     0  0
 25 26  2  0     0  0
 29 30  1  0     0  0
 30 31  1  0     0  0
 31 32  1  0     0  0
M  CHG  2   3  -1  10   1
M  END
> <standard_type>
pIC50

> <# Confs.>
25

> <canonical_smiles>
CCCCC1=NC([N+]([O-])=O)=C(CO)N1CC2=CC=C(C3=CC=CC=C3C4=NN=NN4)C=C2

> <standard_relation>
=

> <Publication_ID>
nan

> <predicted_activity_value>
7.236572006437063

> <actual_activity_value>
6.585026652029182

> <Compound>
11

> <standard_units>
nM

> hash
10037114687936097660

$$$$
11_
XXILIB    08252103443D 0   0.00000     0.00000

 32 35  0     1  0            999 V2000
    5.8054    0.5522    0.1469 O   0  0  0  0  0  2           0  0  0
    1.5680    2.9191    1.3704 O   0  0  0  0  0  2           0  0  0
    4.7700    2.4969    0.1594 O   0  5  0  0  0  1           0  0  0
   -5.5844    0.7136    2.8843 N   0  0  0  0  0  3           0  0  0
   -6.0786   -0.4280    3.3392 N   0  0  0  0  0  3           0  0  0
   -4.5585    0.9963    3.6976 N   0  0  0  0  0  3           0  0  0
   -5.3751   -0.8684    4.4346 N   0  0  0  0  0  3           0  0  0
    1.4527    0.0000    0.0000 N   0  0  0  0  0  3           0  0  0
    3.5401   -0.7716    0.0368 N   0  0  0  0  0  3           0  0  0
    4.7921    1.2608    0.1281 N   0  3  0  0  0  4           0  0  0
   -4.4273    0.0249    4.6566 C   0  0  0  0  0  4           0  0  0
    2.2681   -1.1183    0.0000 C   0  0  0  0  0  4           0  0  0
    3.5383    0.5940    0.0639 C   0  0  0  0  0  4           0  0  0
    2.2634    1.1226    0.0301 C   0  0  0  0  0  4           0  0  0
   -3.4234    0.0158    5.7035 C   0  0  0  0  0  4           0  0  0
   -2.0403    0.0008    5.4116 C   0  0  0  0  0  4           0  0  0
   -1.5266    0.0001    4.0478 C   0  0  0  0  0  4           0  0  0
   -0.5414    0.0000    1.3968 C   0  0  0  0  0  4           0  0  0
   -3.8567    0.0107    7.0396 C   0  0  0  0  0  4           0  0  0
   -1.1291   -0.0162    6.4850 C   0  0  0  0  0  4           0  0  0
   -1.2875   -1.2050    3.3709 C   0  0  0  0  0  4           0  0  0
   -1.2595    1.2049    3.3811 C   0  0  0  0  0  4           0  0  0
   -0.7989   -1.2050    2.0612 C   0  0  0  0  0  4           0  0  0
   -0.7709    1.2048    2.0716 C   0  0  0  0  0  4           0  0  0
   -2.9348   -0.0051    8.0852 C   0  0  0  0  0  4           0  0  0
   -1.5723   -0.0192    7.8085 C   0  0  0  0  0  4           0  0  0
    1.7588    2.5128    0.0217 C   0  0  0  0  0  4           0  0  0
    0.0000    0.0000   -0.0000 C   0  0  0  0  0  4           0  0  0
    1.7802   -2.5220   -0.0360 C   0  0  0  0  0  4           0  0  0
    2.5555   -3.3808   -1.0306 C   0  0  0  0  0  4           0  0  0
    2.0623   -4.8249   -1.0756 C   0  0  0  0  0  4           0  0  0
    2.8335   -5.6842   -2.0666 C   0  0  0  0  0  4           0  0  0
  1 10  2  0     0  0
  2 27  1  0     0  0
  3 10  1  0     0  0
  4  5  2  0     0  0
  4  6  1  0     0  0
  5  7  1  0     0  0
  6 11  1  0     0  0
  7 11  2  0     0  0
  8 12  1  0     0  0
  8 14  1  0     0  0
  8 28  1  0     0  0
  9 12  2  0     0  0
  9 13  1  0     0  0
 10 13  1  0     0  0
 11 15  1  0     0  0
 12 29  1  0     0  0
 13 14  2  0     0  0
 14 27  1  0     0  0
 15 16  1  0     0  0
 15 19  2  0     0  0
 16 17  1  0     0  0
 16 20  2  0     0  0
 17 21  2  0     0  0
 17 22  1  0     0  0
 18 23  2  0     0  0
 18 24  1  0     0  0
 18 28  1  0     0  0
 19 25  1  0     0  0
 20 26  1  0     0  0
 21 23  1  0     0  0
 22 24  2  0     0  0
 25 26  2  0     0  0
 29 30  1  0     0  0
 30 31  1  0     0  0
 31 32  1  0     0  0
M  CHG  2   3  -1  10   1
M  END
> <standard_type>
pIC50

> <# Confs.>
25

> <canonical_smiles>
CCCCC1=NC([N+]([O-])=O)=C(CO)N1CC2=CC=C(C3=CC=CC=C3C4=NN=NN4)C=C2

> <standard_relation>
=

> <Publication_ID>
nan

> <predicted_activity_value>
7.236572006437063

> <actual_activity_value>
6.585026652029182

> <Compound>
11

> <standard_units>
nM

> hash
10037114687936097660

$$$$
11_
XXILIB    08252103443D 0   0.00000     0.00000

 32 35  0     1  0            999 V2000
    5.8054   -0.5522   -0.1469 O   0  0  0  0  0  2           0  0  0
    1.5680   -2.9191   -1.3704 O   0  0  0  0  0  2           0  0  0
    4.7700   -2.4969   -0.1594 O   0  5  0  0  0  1           0  0  0
   -0.0711    3.8490    5.0201 N   0  0  0  0  0  3           0  0  0
   -1.2459    4.4322    5.2050 N   0  0  0  0  0  3           0  0  0
   -0.2609    2.5688    5.3651 N   0  0  0  0  0  3           0  0  0
   -2.1764    3.5320    5.6660 N   0  0  0  0  0  3           0  0  0
    1.4527   -0.0000   -0.0000 N   0  0  0  0  0  3           0  0  0
    3.5401    0.7716   -0.0368 N   0  0  0  0  0  3           0  0  0
    4.7921   -1.2608   -0.1281 N   0  3  0  0  0  4           0  0  0
   -1.5569    2.3693    5.7665 C   0  0  0  0  0  4           0  0  0
    2.2681    1.1183    0.0000 C   0  0  0  0  0  4           0  0  0
    3.5383   -0.5940   -0.0639 C   0  0  0  0  0  4           0  0  0
    2.2634   -1.1226   -0.0301 C   0  0  0  0  0  4           0  0  0
   -2.1070    1.1035    6.2125 C   0  0  0  0  0  4           0  0  0
   -2.1245   -0.0382    5.3789 C   0  0  0  0  0  4           0  0  0
   -1.5892   -0.0278    4.0235 C   0  0  0  0  0  4           0  0  0
   -0.5414    0.0000    1.3968 C   0  0  0  0  0  4           0  0  0
   -2.6431    1.0318    7.5087 C   0  0  0  0  0  4           0  0  0
   -2.6844   -1.2277    5.8835 C   0  0  0  0  0  4           0  0  0
   -2.1102    0.8396    3.0521 C   0  0  0  0  0  4           0  0  0
   -0.5406   -0.8855    3.6597 C   0  0  0  0  0  4           0  0  0
   -1.5934    0.8521    1.7533 C   0  0  0  0  0  4           0  0  0
   -0.0240   -0.8730    2.3611 C   0  0  0  0  0  4           0  0  0
   -3.1911   -0.1579    7.9860 C   0  0  0  0  0  4           0  0  0
   -3.2124   -1.2866    7.1742 C   0  0  0  0  0  4           0  0  0
    1.7588   -2.5128   -0.0217 C   0  0  0  0  0  4           0  0  0
    0.0000    0.0000    0.0000 C   0  0  0  0  0  4           0  0  0
    1.7802    2.5220    0.0360 C   0  0  0  0  0  4           0  0  0
    2.5555    3.3808    1.0306 C   0  0  0  0  0  4           0  0  0
    2.4597    2.8601    2.4624 C   0  0  0  0  0  4           0  0  0
    3.2319    3.7144    3.4570 C   0  0  0  0  0  4           0  0  0
  1 10  2  0     0  0
  2 27  1  0     0  0
  3 10  1  0     0  0
  4  5  2  0     0  0
  4  6  1  0     0  0
  5  7  1  0     0  0
  6 11  1  0     0  0
  7 11  2  0     0  0
  8 12  1  0     0  0
  8 14  1  0     0  0
  8 28  1  0     0  0
  9 12  2  0     0  0
  9 13  1  0     0  0
 10 13  1  0     0  0
 11 15  1  0     0  0
 12 29  1  0     0  0
 13 14  2  0     0  0
 14 27  1  0     0  0
 15 16  1  0     0  0
 15 19  2  0     0  0
 16 17  1  0     0  0
 16 20  2  0     0  0
 17 21  2  0     0  0
 17 22  1  0     0  0
 18 23  2  0     0  0
 18 24  1  0     0  0
 18 28  1  0     0  0
 19 25  1  0     0  0
 20 26  1  0     0  0
 21 23  1  0     0  0
 22 24  2  0     0  0
 25 26  2  0     0  0
 29 30  1  0     0  0
 30 31  1  0     0  0
 31 32  1  0     0  0
M  CHG  2   3  -1  10   1
M  END
> <standard_type>
pIC50

> <# Confs.>
25

> <canonical_smiles>
CCCCC1=NC([N+]([O-])=O)=C(CO)N1CC2=CC=C(C3=CC=CC=C3C4=NN=NN4)C=C2

> <standard_relation>
=

> <Publication_ID>
nan

> <predicted_activity_value>
7.236572006437063

> <actual_activity_value>
6.585026652029182

> <Compound>
11

> <standard_units>
nM

> hash
10037114687936097660

$$$$
11_
XXILIB    08252103443D 0   0.00000     0.00000

 32 35  0     1  0            999 V2000
    5.8054    0.5522    0.1469 O   0  0  0  0  0  2           0  0  0
    1.5680    2.9191    1.3704 O   0  0  0  0  0  2           0  0  0
    4.7700    2.4969    0.1594 O   0  5  0  0  0  1           0  0  0
   -5.5844    0.7136    2.8843 N   0  0  0  0  0  3           0  0  0
   -6.0786   -0.4280    3.3392 N   0  0  0  0  0  3           0  0  0
   -4.5585    0.9963    3.6976 N   0  0  0  0  0  3           0  0  0
   -5.3751   -0.8684    4.4346 N   0  0  0  0  0  3           0  0  0
    1.4527    0.0000    0.0000 N   0  0  0  0  0  3           0  0  0
    3.5401   -0.7716    0.0368 N   0  0  0  0  0  3           0  0  0
    4.7921    1.2608    0.1281 N   0  3  0  0  0  4           0  0  0
   -4.4273    0.0249    4.6566 C   0  0  0  0  0  4           0  0  0
    2.2681   -1.1183    0.0000 C   0  0  0  0  0  4           0  0  0
    3.5383    0.5940    0.0639 C   0  0  0  0  0  4           0  0  0
    2.2634    1.1226    0.0301 C   0  0  0  0  0  4           0  0  0
   -3.4234    0.0158    5.7035 C   0  0  0  0  0  4           0  0  0
   -2.0403    0.0008    5.4116 C   0  0  0  0  0  4           0  0  0
   -1.5266    0.0001    4.0478 C   0  0  0  0  0  4           0  0  0
   -0.5414    0.0000    1.3968 C   0  0  0  0  0  4           0  0  0
   -3.8567    0.0107    7.0396 C   0  0  0  0  0  4           0  0  0
   -1.1291   -0.0162    6.4850 C   0  0  0  0  0  4           0  0  0
   -1.2875   -1.2050    3.3709 C   0  0  0  0  0  4           0  0  0
   -1.2595    1.2049    3.3811 C   0  0  0  0  0  4           0  0  0
   -0.7989   -1.2050    2.0612 C   0  0  0  0  0  4           0  0  0
   -0.7709    1.2048    2.0716 C   0  0  0  0  0  4           0  0  0
   -2.9348   -0.0051    8.0852 C   0  0  0  0  0  4           0  0  0
   -1.5723   -0.0192    7.8085 C   0  0  0  0  0  4           0  0  0
    1.7588    2.5128    0.0217 C   0  0  0  0  0  4           0  0  0
    0.0000    0.0000   -0.0000 C   0  0  0  0  0  4           0  0  0
    1.7802   -2.5220   -0.0360 C   0  0  0  0  0  4           0  0  0
    2.5555   -3.3808   -1.0306 C   0  0  0  0  0  4           0  0  0
    2.4597   -2.8601   -2.4624 C   0  0  0  0  0  4           0  0  0
    3.2319   -3.7144   -3.4570 C   0  0  0  0  0  4           0  0  0
  1 10  2  0     0  0
  2 27  1  0     0  0
  3 10  1  0     0  0
  4  5  2  0     0  0
  4  6  1  0     0  0
  5  7  1  0     0  0
  6 11  1  0     0  0
  7 11  2  0     0  0
  8 12  1  0     0  0
  8 14  1  0     0  0
  8 28  1  0     0  0
  9 12  2  0     0  0
  9 13  1  0     0  0
 10 13  1  0     0  0
 11 15  1  0     0  0
 12 29  1  0     0  0
 13 14  2  0     0  0
 14 27  1  0     0  0
 15 16  1  0     0  0
 15 19  2  0     0  0
 16 17  1  0     0  0
 16 20  2  0     0  0
 17 21  2  0     0  0
 17 22  1  0     0  0
 18 23  2  0     0  0
 18 24  1  0     0  0
 18 28  1  0     0  0
 19 25  1  0     0  0
 20 26  1  0     0  0
 21 23  1  0     0  0
 22 24  2  0     0  0
 25 26  2  0     0  0
 29 30  1  0     0  0
 30 31  1  0     0  0
 31 32  1  0     0  0
M  CHG  2   3  -1  10   1
M  END
> <standard_type>
pIC50

> <# Confs.>
25

> <canonical_smiles>
CCCCC1=NC([N+]([O-])=O)=C(CO)N1CC2=CC=C(C3=CC=CC=C3C4=NN=NN4)C=C2

> <standard_relation>
=

> <Publication_ID>
nan

> <predicted_activity_value>
7.236572006437063

> <actual_activity_value>
6.585026652029182

> <Compound>
11

> <standard_units>
nM

> hash
10037114687936097660

$$$$
11_
XXILIB    08252103443D 0   0.00000     0.00000

 32 35  0     1  0            999 V2000
    5.8054   -0.5522   -0.1469 O   0  0  0  0  0  2           0  0  0
    1.5680   -2.9191   -1.3704 O   0  0  0  0  0  2           0  0  0
    4.7700   -2.4969   -0.1594 O   0  5  0  0  0  1           0  0  0
   -3.2937    3.9368    3.6870 N   0  0  0  0  0  3           0  0  0
   -2.5423    4.5104    4.6148 N   0  0  0  0  0  3           0  0  0
   -3.4263    2.6648    4.0851 N   0  0  0  0  0  3           0  0  0
   -2.1969    3.6112    5.5952 N   0  0  0  0  0  3           0  0  0
    1.4527   -0.0000   -0.0000 N   0  0  0  0  0  3           0  0  0
    3.5401    0.7716   -0.0368 N   0  0  0  0  0  3           0  0  0
    4.7921   -1.2608   -0.1281 N   0  3  0  0  0  4           0  0  0
   -2.7495    2.4589    5.2599 C   0  0  0  0  0  4           0  0  0
    2.2681    1.1183    0.0000 C   0  0  0  0  0  4           0  0  0
    3.5383   -0.5940   -0.0639 C   0  0  0  0  0  4           0  0  0
    2.2634   -1.1226   -0.0301 C   0  0  0  0  0  4           0  0  0
   -2.6764    1.1966    5.9707 C   0  0  0  0  0  4           0  0  0
   -2.1255    0.0371    5.3785 C   0  0  0  0  0  4           0  0  0
   -1.5893    0.0278    4.0235 C   0  0  0  0  0  4           0  0  0
   -0.5414   -0.0000    1.3968 C   0  0  0  0  0  4           0  0  0
   -3.1822    1.1409    7.2798 C   0  0  0  0  0  4           0  0  0
   -2.0991   -1.1521    6.1322 C   0  0  0  0  0  4           0  0  0
   -0.5212    0.8646    3.6680 C   0  0  0  0  0  4           0  0  0
   -2.1294   -0.8184    3.0439 C   0  0  0  0  0  4           0  0  0
   -0.0044    0.8521    2.3692 C   0  0  0  0  0  4           0  0  0
   -1.6127   -0.8309    1.7453 C   0  0  0  0  0  4           0  0  0
   -3.1438   -0.0483    8.0062 C   0  0  0  0  0  4           0  0  0
   -2.6034   -1.1941    7.4330 C   0  0  0  0  0  4           0  0  0
    1.7588   -2.5128   -0.0217 C   0  0  0  0  0  4           0  0  0
    0.0000    0.0000   -0.0000 C   0  0  0  0  0  4           0  0  0
    1.7802    2.5220    0.0360 C   0  0  0  0  0  4           0  0  0
    2.5079    3.4155   -0.9639 C   0  0  0  0  0  4           0  0  0
    2.0144    4.8599   -0.9352 C   0  0  0  0  0  4           0  0  0
    2.7382    5.7537   -1.9313 C   0  0  0  0  0  4           0  0  0
  1 10  2  0     0  0
  2 27  1  0     0  0
  3 10  1  0     0  0
  4  5  2  0     0  0
  4  6  1  0     0  0
  5  7  1  0     0  0
  6 11  1  0     0  0
  7 11  2  0     0  0
  8 12  1  0     0  0
  8 14  1  0     0  0
  8 28  1  0     0  0
  9 12  2  0     0  0
  9 13  1  0     0  0
 10 13  1  0     0  0
 11 15  1  0     0  0
 12 29  1  0     0  0
 13 14  2  0     0  0
 14 27  1  0     0  0
 15 16  1  0     0  0
 15 19  2  0     0  0
 16 17  1  0     0  0
 16 20  2  0     0  0
 17 21  2  0     0  0
 17 22  1  0     0  0
 18 23  2  0     0  0
 18 24  1  0     0  0
 18 28  1  0     0  0
 19 25  1  0     0  0
 20 26  1  0     0  0
 21 23  1  0     0  0
 22 24  2  0     0  0
 25 26  2  0     0  0
 29 30  1  0     0  0
 30 31  1  0     0  0
 31 32  1  0     0  0
M  CHG  2   3  -1  10   1
M  END
> <standard_type>
pIC50

> <# Confs.>
25

> <canonical_smiles>
CCCCC1=NC([N+]([O-])=O)=C(CO)N1CC2=CC=C(C3=CC=CC=C3C4=NN=NN4)C=C2

> <standard_relation>
=

> <Publication_ID>
nan

> <predicted_activity_value>
7.236572006437063

> <actual_activity_value>
6.585026652029182

> <Compound>
11

> <standard_units>
nM

> hash
10037114687936097660

$$$$
11_
XXILIB    08252103443D 0   0.00000     0.00000

 32 35  0     1  0            999 V2000
    5.8054   -0.5522   -0.1469 O   0  0  0  0  0  2           0  0  0
    1.5680   -2.9191   -1.3704 O   0  0  0  0  0  2           0  0  0
    4.7700   -2.4969   -0.1594 O   0  5  0  0  0  1           0  0  0
   -3.2937    3.9368    3.6870 N   0  0  0  0  0  3           0  0  0
   -2.5423    4.5104    4.6148 N   0  0  0  0  0  3           0  0  0
   -3.4263    2.6648    4.0851 N   0  0  0  0  0  3           0  0  0
   -2.1969    3.6112    5.5952 N   0  0  0  0  0  3           0  0  0
    1.4527   -0.0000   -0.0000 N   0  0  0  0  0  3           0  0  0
    3.5401    0.7716   -0.0368 N   0  0  0  0  0  3           0  0  0
    4.7921   -1.2608   -0.1281 N   0  3  0  0  0  4           0  0  0
   -2.7495    2.4589    5.2599 C   0  0  0  0  0  4           0  0  0
    2.2681    1.1183    0.0000 C   0  0  0  0  0  4           0  0  0
    3.5383   -0.5940   -0.0639 C   0  0  0  0  0  4           0  0  0
    2.2634   -1.1226   -0.0301 C   0  0  0  0  0  4           0  0  0
   -2.6764    1.1966    5.9707 C   0  0  0  0  0  4           0  0  0
   -2.1255    0.0371    5.3785 C   0  0  0  0  0  4           0  0  0
   -1.5893    0.0278    4.0235 C   0  0  0  0  0  4           0  0  0
   -0.5414   -0.0000    1.3968 C   0  0  0  0  0  4           0  0  0
   -3.1822    1.1409    7.2798 C   0  0  0  0  0  4           0  0  0
   -2.0991   -1.1521    6.1322 C   0  0  0  0  0  4           0  0  0
   -0.5212    0.8646    3.6680 C   0  0  0  0  0  4           0  0  0
   -2.1294   -0.8184    3.0439 C   0  0  0  0  0  4           0  0  0
   -0.0044    0.8521    2.3692 C   0  0  0  0  0  4           0  0  0
   -1.6127   -0.8309    1.7453 C   0  0  0  0  0  4           0  0  0
   -3.1438   -0.0483    8.0062 C   0  0  0  0  0  4           0  0  0
   -2.6034   -1.1941    7.4330 C   0  0  0  0  0  4           0  0  0
    1.7588   -2.5128   -0.0217 C   0  0  0  0  0  4           0  0  0
    0.0000    0.0000   -0.0000 C   0  0  0  0  0  4           0  0  0
    1.7802    2.5220    0.0360 C   0  0  0  0  0  4           0  0  0
    2.5079    3.4155   -0.9639 C   0  0  0  0  0  4           0  0  0
    2.3437    2.9447   -2.4068 C   0  0  0  0  0  4           0  0  0
    3.0683    3.8336   -3.4067 C   0  0  0  0  0  4           0  0  0
  1 10  2  0     0  0
  2 27  1  0     0  0
  3 10  1  0     0  0
  4  5  2  0     0  0
  4  6  1  0     0  0
  5  7  1  0     0  0
  6 11  1  0     0  0
  7 11  2  0     0  0
  8 12  1  0     0  0
  8 14  1  0     0  0
  8 28  1  0     0  0
  9 12  2  0     0  0
  9 13  1  0     0  0
 10 13  1  0     0  0
 11 15  1  0     0  0
 12 29  1  0     0  0
 13 14  2  0     0  0
 14 27  1  0     0  0
 15 16  1  0     0  0
 15 19  2  0     0  0
 16 17  1  0     0  0
 16 20  2  0     0  0
 17 21  2  0     0  0
 17 22  1  0     0  0
 18 23  2  0     0  0
 18 24  1  0     0  0
 18 28  1  0     0  0
 19 25  1  0     0  0
 20 26  1  0     0  0
 21 23  1  0     0  0
 22 24  2  0     0  0
 25 26  2  0     0  0
 29 30  1  0     0  0
 30 31  1  0     0  0
 31 32  1  0     0  0
M  CHG  2   3  -1  10   1
M  END
> <standard_type>
pIC50

> <# Confs.>
25

> <canonical_smiles>
CCCCC1=NC([N+]([O-])=O)=C(CO)N1CC2=CC=C(C3=CC=CC=C3C4=NN=NN4)C=C2

> <standard_relation>
=

> <Publication_ID>
nan

> <predicted_activity_value>
7.236572006437063

> <actual_activity_value>
6.585026652029182

> <Compound>
11

> <standard_units>
nM

> hash
10037114687936097660

$$$$
11_
XXILIB    08252103443D 0   0.00000     0.00000

 32 35  0     1  0            999 V2000
    5.8054   -0.5522   -0.1469 O   0  0  0  0  0  2           0  0  0
    1.5680   -2.9191   -1.3704 O   0  0  0  0  0  2           0  0  0
    4.7700   -2.4969   -0.1594 O   0  5  0  0  0  1           0  0  0
   -3.2937    3.9368    3.6870 N   0  0  0  0  0  3           0  0  0
   -2.5423    4.5104    4.6148 N   0  0  0  0  0  3           0  0  0
   -3.4263    2.6648    4.0851 N   0  0  0  0  0  3           0  0  0
   -2.1969    3.6112    5.5952 N   0  0  0  0  0  3           0  0  0
    1.4527   -0.0000   -0.0000 N   0  0  0  0  0  3           0  0  0
    3.5401    0.7716   -0.0368 N   0  0  0  0  0  3           0  0  0
    4.7921   -1.2608   -0.1281 N   0  3  0  0  0  4           0  0  0
   -2.7495    2.4589    5.2599 C   0  0  0  0  0  4           0  0  0
    2.2681    1.1183    0.0000 C   0  0  0  0  0  4           0  0  0
    3.5383   -0.5940   -0.0639 C   0  0  0  0  0  4           0  0  0
    2.2634   -1.1226   -0.0301 C   0  0  0  0  0  4           0  0  0
   -2.6764    1.1966    5.9707 C   0  0  0  0  0  4           0  0  0
   -2.1255    0.0371    5.3785 C   0  0  0  0  0  4           0  0  0
   -1.5893    0.0278    4.0235 C   0  0  0  0  0  4           0  0  0
   -0.5414   -0.0000    1.3968 C   0  0  0  0  0  4           0  0  0
   -3.1822    1.1409    7.2798 C   0  0  0  0  0  4           0  0  0
   -2.0991   -1.1521    6.1322 C   0  0  0  0  0  4           0  0  0
   -0.5212    0.8646    3.6680 C   0  0  0  0  0  4           0  0  0
   -2.1294   -0.8184    3.0439 C   0  0  0  0  0  4           0  0  0
   -0.0044    0.8521    2.3692 C   0  0  0  0  0  4           0  0  0
   -1.6127   -0.8309    1.7453 C   0  0  0  0  0  4           0  0  0
   -3.1438   -0.0483    8.0062 C   0  0  0  0  0  4           0  0  0
   -2.6034   -1.1941    7.4330 C   0  0  0  0  0  4           0  0  0
    1.7588   -2.5128   -0.0217 C   0  0  0  0  0  4           0  0  0
    0.0000    0.0000   -0.0000 C   0  0  0  0  0  4           0  0  0
    1.7802    2.5220    0.0360 C   0  0  0  0  0  4           0  0  0
    2.5555    3.3808    1.0306 C   0  0  0  0  0  4           0  0  0
    2.0623    4.8249    1.0756 C   0  0  0  0  0  4           0  0  0
    2.8335    5.6842    2.0666 C   0  0  0  0  0  4           0  0  0
  1 10  2  0     0  0
  2 27  1  0     0  0
  3 10  1  0     0  0
  4  5  2  0     0  0
  4  6  1  0     0  0
  5  7  1  0     0  0
  6 11  1  0     0  0
  7 11  2  0     0  0
  8 12  1  0     0  0
  8 14  1  0     0  0
  8 28  1  0     0  0
  9 12  2  0     0  0
  9 13  1  0     0  0
 10 13  1  0     0  0
 11 15  1  0     0  0
 12 29  1  0     0  0
 13 14  2  0     0  0
 14 27  1  0     0  0
 15 16  1  0     0  0
 15 19  2  0     0  0
 16 17  1  0     0  0
 16 20  2  0     0  0
 17 21  2  0     0  0
 17 22  1  0     0  0
 18 23  2  0     0  0
 18 24  1  0     0  0
 18 28  1  0     0  0
 19 25  1  0     0  0
 20 26  1  0     0  0
 21 23  1  0     0  0
 22 24  2  0     0  0
 25 26  2  0     0  0
 29 30  1  0     0  0
 30 31  1  0     0  0
 31 32  1  0     0  0
M  CHG  2   3  -1  10   1
M  END
> <standard_type>
pIC50

> <# Confs.>
25

> <canonical_smiles>
CCCCC1=NC([N+]([O-])=O)=C(CO)N1CC2=CC=C(C3=CC=CC=C3C4=NN=NN4)C=C2

> <standard_relation>
=

> <Publication_ID>
nan

> <predicted_activity_value>
7.236572006437063

> <actual_activity_value>
6.585026652029182

> <Compound>
11

> <standard_units>
nM

> hash
10037114687936097660

$$$$
11_
XXILIB    08252103443D 0   0.00000     0.00000

 32 35  0     1  0            999 V2000
    5.8054    0.5522    0.1469 O   0  0  0  0  0  2           0  0  0
    1.5680    2.9191    1.3704 O   0  0  0  0  0  2           0  0  0
    4.7700    2.4969    0.1594 O   0  5  0  0  0  1           0  0  0
    2.2993    0.6394    5.8511 N   0  0  0  0  0  3           0  0  0
    2.3543   -0.5125    6.5027 N   0  0  0  0  0  3           0  0  0
    0.9968    0.9471    5.7993 N   0  0  0  0  0  3           0  0  0
    1.0973   -0.9367    6.8616 N   0  0  0  0  0  3           0  0  0
    1.4527    0.0000    0.0000 N   0  0  0  0  0  3           0  0  0
    3.5401   -0.7716    0.0368 N   0  0  0  0  0  3           0  0  0
    4.7921    1.2608    0.1281 N   0  3  0  0  0  4           0  0  0
    0.2517   -0.0232    6.4189 C   0  0  0  0  0  4           0  0  0
    2.2681   -1.1183    0.0000 C   0  0  0  0  0  4           0  0  0
    3.5383    0.5940    0.0639 C   0  0  0  0  0  4           0  0  0
    2.2634    1.1226    0.0301 C   0  0  0  0  0  4           0  0  0
   -1.1934   -0.0135    6.5434 C   0  0  0  0  0  4           0  0  0
   -2.0403    0.0008    5.4116 C   0  0  0  0  0  4           0  0  0
   -1.5266    0.0001    4.0478 C   0  0  0  0  0  4           0  0  0
   -0.5414    0.0000    1.3968 C   0  0  0  0  0  4           0  0  0
   -1.7491   -0.0071    7.8334 C   0  0  0  0  0  4           0  0  0
   -3.4332    0.0184    5.6172 C   0  0  0  0  0  4           0  0  0
   -1.2875   -1.2050    3.3709 C   0  0  0  0  0  4           0  0  0
   -1.2595    1.2049    3.3811 C   0  0  0  0  0  4           0  0  0
   -0.7989   -1.2050    2.0612 C   0  0  0  0  0  4           0  0  0
   -0.7709    1.2048    2.0716 C   0  0  0  0  0  4           0  0  0
   -3.1317    0.0094    8.0110 C   0  0  0  0  0  4           0  0  0
   -3.9732    0.0228    6.9043 C   0  0  0  0  0  4           0  0  0
    1.7588    2.5128    0.0217 C   0  0  0  0  0  4           0  0  0
    0.0000    0.0000    0.0000 C   0  0  0  0  0  4           0  0  0
    1.7802   -2.5220   -0.0360 C   0  0  0  0  0  4           0  0  0
    2.5555   -3.3808   -1.0306 C   0  0  0  0  0  4           0  0  0
    2.0623   -4.8249   -1.0756 C   0  0  0  0  0  4           0  0  0
    2.8335   -5.6842   -2.0666 C   0  0  0  0  0  4           0  0  0
  1 10  2  0     0  0
  2 27  1  0     0  0
  3 10  1  0     0  0
  4  5  2  0     0  0
  4  6  1  0     0  0
  5  7  1  0     0  0
  6 11  1  0     0  0
  7 11  2  0     0  0
  8 12  1  0     0  0
  8 14  1  0     0  0
  8 28  1  0     0  0
  9 12  2  0     0  0
  9 13  1  0     0  0
 10 13  1  0     0  0
 11 15  1  0     0  0
 12 29  1  0     0  0
 13 14  2  0     0  0
 14 27  1  0     0  0
 15 16  1  0     0  0
 15 19  2  0     0  0
 16 17  1  0     0  0
 16 20  2  0     0  0
 17 21  2  0     0  0
 17 22  1  0     0  0
 18 23  2  0     0  0
 18 24  1  0     0  0
 18 28  1  0     0  0
 19 25  1  0     0  0
 20 26  1  0     0  0
 21 23  1  0     0  0
 22 24  2  0     0  0
 25 26  2  0     0  0
 29 30  1  0     0  0
 30 31  1  0     0  0
 31 32  1  0     0  0
M  CHG  2   3  -1  10   1
M  END
> <standard_type>
pIC50

> <# Confs.>
25

> <canonical_smiles>
CCCCC1=NC([N+]([O-])=O)=C(CO)N1CC2=CC=C(C3=CC=CC=C3C4=NN=NN4)C=C2

> <standard_relation>
=

> <Publication_ID>
nan

> <predicted_activity_value>
7.236572006437063

> <actual_activity_value>
6.585026652029182

> <Compound>
11

> <standard_units>
nM

> hash
10037114687936097660

$$$$
11_
XXILIB    08252103443D 0   0.00000     0.00000

 32 35  0     1  0            999 V2000
    5.8054   -0.5522   -0.1469 O   0  0  0  0  0  2           0  0  0
    1.5680   -2.9191   -1.3704 O   0  0  0  0  0  2           0  0  0
    4.7700   -2.4969   -0.1594 O   0  5  0  0  0  1           0  0  0
   -5.3432   -1.7387    2.8926 N   0  0  0  0  0  3           0  0  0
   -6.0926   -0.7027    3.2388 N   0  0  0  0  0  3           0  0  0
   -4.3087   -1.7185    3.7431 N   0  0  0  0  0  3           0  0  0
   -5.5394   -0.0265    4.2997 N   0  0  0  0  0  3           0  0  0
    1.4527   -0.0000   -0.0000 N   0  0  0  0  0  3           0  0  0
    3.5401    0.7716   -0.0368 N   0  0  0  0  0  3           0  0  0
    4.7921   -1.2608   -0.1281 N   0  3  0  0  0  4           0  0  0
   -4.4242   -0.6629    4.6108 C   0  0  0  0  0  4           0  0  0
    2.2681    1.1183    0.0000 C   0  0  0  0  0  4           0  0  0
    3.5383   -0.5940   -0.0639 C   0  0  0  0  0  4           0  0  0
    2.2634   -1.1226   -0.0301 C   0  0  0  0  0  4           0  0  0
   -3.4772   -0.3378    5.6603 C   0  0  0  0  0  4           0  0  0
   -2.1245   -0.0382    5.3789 C   0  0  0  0  0  4           0  0  0
   -1.5892   -0.0278    4.0235 C   0  0  0  0  0  4           0  0  0
   -0.5414   -0.0000    1.3968 C   0  0  0  0  0  4           0  0  0
   -3.9324   -0.3364    6.9891 C   0  0  0  0  0  4           0  0  0
   -1.2662    0.2588    6.4550 C   0  0  0  0  0  4           0  0  0
   -2.1102    0.8396    3.0521 C   0  0  0  0  0  4           0  0  0
   -0.5406   -0.8855    3.6597 C   0  0  0  0  0  4           0  0  0
   -1.5934    0.8521    1.7533 C   0  0  0  0  0  4           0  0  0
   -0.0240   -0.8730    2.3611 C   0  0  0  0  0  4           0  0  0
   -3.0633   -0.0380    8.0374 C   0  0  0  0  0  4           0  0  0
   -1.7312    0.2587    7.7710 C   0  0  0  0  0  4           0  0  0
    1.7588   -2.5128   -0.0217 C   0  0  0  0  0  4           0  0  0
    0.0000    0.0000    0.0000 C   0  0  0  0  0  4           0  0  0
    1.7802    2.5220    0.0360 C   0  0  0  0  0  4           0  0  0
    1.5560    3.0948   -1.3602 C   0  0  0  0  0  4           0  0  0
    1.0547    4.5365   -1.3348 C   0  0  0  0  0  4           0  0  0
    0.8300    5.1108   -2.7257 C   0  0  0  0  0  4           0  0  0
  1 10  2  0     0  0
  2 27  1  0     0  0
  3 10  1  0     0  0
  4  5  2  0     0  0
  4  6  1  0     0  0
  5  7  1  0     0  0
  6 11  1  0     0  0
  7 11  2  0     0  0
  8 12  1  0     0  0
  8 14  1  0     0  0
  8 28  1  0     0  0
  9 12  2  0     0  0
  9 13  1  0     0  0
 10 13  1  0     0  0
 11 15  1  0     0  0
 12 29  1  0     0  0
 13 14  2  0     0  0
 14 27  1  0     0  0
 15 16  1  0     0  0
 15 19  2  0     0  0
 16 17  1  0     0  0
 16 20  2  0     0  0
 17 21  2  0     0  0
 17 22  1  0     0  0
 18 23  2  0     0  0
 18 24  1  0     0  0
 18 28  1  0     0  0
 19 25  1  0     0  0
 20 26  1  0     0  0
 21 23  1  0     0  0
 22 24  2  0     0  0
 25 26  2  0     0  0
 29 30  1  0     0  0
 30 31  1  0     0  0
 31 32  1  0     0  0
M  CHG  2   3  -1  10   1
M  END
> <standard_type>
pIC50

> <# Confs.>
25

> <canonical_smiles>
CCCCC1=NC([N+]([O-])=O)=C(CO)N1CC2=CC=C(C3=CC=CC=C3C4=NN=NN4)C=C2

> <standard_relation>
=

> <Publication_ID>
nan

> <predicted_activity_value>
7.236572006437063

> <actual_activity_value>
6.585026652029182

> <Compound>
11

> <standard_units>
nM

> hash
10037114687936097660

$$$$
11_
XXILIB    08252103443D 0   0.00000     0.00000

 32 35  0     1  0            999 V2000
    5.8054    0.5522    0.1469 O   0  0  0  0  0  2           0  0  0
    1.5680    2.9191    1.3704 O   0  0  0  0  0  2           0  0  0
    4.7700    2.4969    0.1594 O   0  5  0  0  0  1           0  0  0
   -5.3910   -1.4857    2.9583 N   0  0  0  0  0  3           0  0  0
   -5.3131   -2.6254    3.6287 N   0  0  0  0  0  3           0  0  0
   -4.6535   -0.6174    3.6626 N   0  0  0  0  0  3           0  0  0
   -4.5342   -2.4845    4.7522 N   0  0  0  0  0  3           0  0  0
    1.4527    0.0000    0.0000 N   0  0  0  0  0  3           0  0  0
    3.5401   -0.7716    0.0368 N   0  0  0  0  0  3           0  0  0
    4.7921    1.2608    0.1281 N   0  3  0  0  0  4           0  0  0
   -4.1254   -1.2283    4.7710 C   0  0  0  0  0  4           0  0  0
    2.2681   -1.1183    0.0000 C   0  0  0  0  0  4           0  0  0
    3.5383    0.5940    0.0639 C   0  0  0  0  0  4           0  0  0
    2.2634    1.1226    0.0301 C   0  0  0  0  0  4           0  0  0
   -3.2810   -0.5819    5.7575 C   0  0  0  0  0  4           0  0  0
   -2.0403    0.0008    5.4116 C   0  0  0  0  0  4           0  0  0
   -1.5266    0.0001    4.0478 C   0  0  0  0  0  4           0  0  0
   -0.5414   -0.0000    1.3968 C   0  0  0  0  0  4           0  0  0
   -3.7198   -0.5535    7.0914 C   0  0  0  0  0  4           0  0  0
   -1.2752    0.6017    6.4296 C   0  0  0  0  0  4           0  0  0
   -1.2875   -1.2050    3.3709 C   0  0  0  0  0  4           0  0  0
   -1.2595    1.2049    3.3811 C   0  0  0  0  0  4           0  0  0
   -0.7989   -1.2050    2.0612 C   0  0  0  0  0  4           0  0  0
   -0.7709    1.2048    2.0716 C   0  0  0  0  0  4           0  0  0
   -2.9446    0.0484    8.0815 C   0  0  0  0  0  4           0  0  0
   -1.7232    0.6250    7.7514 C   0  0  0  0  0  4           0  0  0
    1.7588    2.5128    0.0217 C   0  0  0  0  0  4           0  0  0
    0.0000   -0.0000    0.0000 C   0  0  0  0  0  4           0  0  0
    1.7802   -2.5220   -0.0360 C   0  0  0  0  0  4           0  0  0
    2.5079   -3.4155    0.9639 C   0  0  0  0  0  4           0  0  0
    2.3437   -2.9447    2.4068 C   0  0  0  0  0  4           0  0  0
    3.0683   -3.8336    3.4067 C   0  0  0  0  0  4           0  0  0
  1 10  2  0     0  0
  2 27  1  0     0  0
  3 10  1  0     0  0
  4  5  2  0     0  0
  4  6  1  0     0  0
  5  7  1  0     0  0
  6 11  1  0     0  0
  7 11  2  0     0  0
  8 12  1  0     0  0
  8 14  1  0     0  0
  8 28  1  0     0  0
  9 12  2  0     0  0
  9 13  1  0     0  0
 10 13  1  0     0  0
 11 15  1  0     0  0
 12 29  1  0     0  0
 13 14  2  0     0  0
 14 27  1  0     0  0
 15 16  1  0     0  0
 15 19  2  0     0  0
 16 17  1  0     0  0
 16 20  2  0     0  0
 17 21  2  0     0  0
 17 22  1  0     0  0
 18 23  2  0     0  0
 18 24  1  0     0  0
 18 28  1  0     0  0
 19 25  1  0     0  0
 20 26  1  0     0  0
 21 23  1  0     0  0
 22 24  2  0     0  0
 25 26  2  0     0  0
 29 30  1  0     0  0
 30 31  1  0     0  0
 31 32  1  0     0  0
M  CHG  2   3  -1  10   1
M  END
> <standard_type>
pIC50

> <# Confs.>
25

> <canonical_smiles>
CCCCC1=NC([N+]([O-])=O)=C(CO)N1CC2=CC=C(C3=CC=CC=C3C4=NN=NN4)C=C2

> <standard_relation>
=

> <Publication_ID>
nan

> <predicted_activity_value>
7.236572006437063

> <actual_activity_value>
6.585026652029182

> <Compound>
11

> <standard_units>
nM

> hash
10037114687936097660

$$$$
11_
XXILIB    08252103443D 0   0.00000     0.00000

 32 35  0     1  0            999 V2000
    5.8054   -0.5522   -0.1469 O   0  0  0  0  0  2           0  0  0
    1.5680   -2.9191   -1.3704 O   0  0  0  0  0  2           0  0  0
    4.7700   -2.4969   -0.1594 O   0  5  0  0  0  1           0  0  0
   -0.0711    3.8490    5.0201 N   0  0  0  0  0  3           0  0  0
   -1.2459    4.4322    5.2050 N   0  0  0  0  0  3           0  0  0
   -0.2609    2.5688    5.3651 N   0  0  0  0  0  3           0  0  0
   -2.1764    3.5320    5.6660 N   0  0  0  0  0  3           0  0  0
    1.4527   -0.0000   -0.0000 N   0  0  0  0  0  3           0  0  0
    3.5401    0.7716   -0.0368 N   0  0  0  0  0  3           0  0  0
    4.7921   -1.2608   -0.1281 N   0  3  0  0  0  4           0  0  0
   -1.5569    2.3693    5.7665 C   0  0  0  0  0  4           0  0  0
    2.2681    1.1183    0.0000 C   0  0  0  0  0  4           0  0  0
    3.5383   -0.5940   -0.0639 C   0  0  0  0  0  4           0  0  0
    2.2634   -1.1226   -0.0301 C   0  0  0  0  0  4           0  0  0
   -2.1070    1.1035    6.2125 C   0  0  0  0  0  4           0  0  0
   -2.1245   -0.0382    5.3789 C   0  0  0  0  0  4           0  0  0
   -1.5892   -0.0278    4.0235 C   0  0  0  0  0  4           0  0  0
   -0.5414    0.0000    1.3968 C   0  0  0  0  0  4           0  0  0
   -2.6431    1.0318    7.5087 C   0  0  0  0  0  4           0  0  0
   -2.6844   -1.2277    5.8835 C   0  0  0  0  0  4           0  0  0
   -2.1102    0.8396    3.0521 C   0  0  0  0  0  4           0  0  0
   -0.5406   -0.8855    3.6597 C   0  0  0  0  0  4           0  0  0
   -1.5934    0.8521    1.7533 C   0  0  0  0  0  4           0  0  0
   -0.0240   -0.8730    2.3611 C   0  0  0  0  0  4           0  0  0
   -3.1911   -0.1579    7.9860 C   0  0  0  0  0  4           0  0  0
   -3.2124   -1.2866    7.1742 C   0  0  0  0  0  4           0  0  0
    1.7588   -2.5128   -0.0217 C   0  0  0  0  0  4           0  0  0
    0.0000    0.0000    0.0000 C   0  0  0  0  0  4           0  0  0
    1.7802    2.5220    0.0360 C   0  0  0  0  0  4           0  0  0
    2.5555    3.3808    1.0306 C   0  0  0  0  0  4           0  0  0
    2.0623    4.8249    1.0756 C   0  0  0  0  0  4           0  0  0
    2.8335    5.6842    2.0666 C   0  0  0  0  0  4           0  0  0
  1 10  2  0     0  0
  2 27  1  0     0  0
  3 10  1  0     0  0
  4  5  2  0     0  0
  4  6  1  0     0  0
  5  7  1  0     0  0
  6 11  1  0     0  0
  7 11  2  0     0  0
  8 12  1  0     0  0
  8 14  1  0     0  0
  8 28  1  0     0  0
  9 12  2  0     0  0
  9 13  1  0     0  0
 10 13  1  0     0  0
 11 15  1  0     0  0
 12 29  1  0     0  0
 13 14  2  0     0  0
 14 27  1  0     0  0
 15 16  1  0     0  0
 15 19  2  0     0  0
 16 17  1  0     0  0
 16 20  2  0     0  0
 17 21  2  0     0  0
 17 22  1  0     0  0
 18 23  2  0     0  0
 18 24  1  0     0  0
 18 28  1  0     0  0
 19 25  1  0     0  0
 20 26  1  0     0  0
 21 23  1  0     0  0
 22 24  2  0     0  0
 25 26  2  0     0  0
 29 30  1  0     0  0
 30 31  1  0     0  0
 31 32  1  0     0  0
M  CHG  2   3  -1  10   1
M  END
> <standard_type>
pIC50

> <# Confs.>
25

> <canonical_smiles>
CCCCC1=NC([N+]([O-])=O)=C(CO)N1CC2=CC=C(C3=CC=CC=C3C4=NN=NN4)C=C2

> <standard_relation>
=

> <Publication_ID>
nan

> <predicted_activity_value>
7.236572006437063

> <actual_activity_value>
6.585026652029182

> <Compound>
11

> <standard_units>
nM

> hash
10037114687936097660

$$$$
11_
XXILIB    08252103443D 0   0.00000     0.00000

 32 35  0     1  0            999 V2000
    5.8054    0.5522    0.1469 O   0  0  0  0  0  2           0  0  0
    1.5680    2.9191    1.3704 O   0  0  0  0  0  2           0  0  0
    4.7700    2.4969    0.1594 O   0  5  0  0  0  1           0  0  0
    2.2993    0.6394    5.8511 N   0  0  0  0  0  3           0  0  0
    2.3543   -0.5125    6.5027 N   0  0  0  0  0  3           0  0  0
    0.9968    0.9471    5.7993 N   0  0  0  0  0  3           0  0  0
    1.0973   -0.9367    6.8616 N   0  0  0  0  0  3           0  0  0
    1.4527    0.0000    0.0000 N   0  0  0  0  0  3           0  0  0
    3.5401   -0.7716    0.0368 N   0  0  0  0  0  3           0  0  0
    4.7921    1.2608    0.1281 N   0  3  0  0  0  4           0  0  0
    0.2517   -0.0232    6.4189 C   0  0  0  0  0  4           0  0  0
    2.2681   -1.1183    0.0000 C   0  0  0  0  0  4           0  0  0
    3.5383    0.5940    0.0639 C   0  0  0  0  0  4           0  0  0
    2.2634    1.1226    0.0301 C   0  0  0  0  0  4           0  0  0
   -1.1934   -0.0135    6.5434 C   0  0  0  0  0  4           0  0  0
   -2.0403    0.0008    5.4116 C   0  0  0  0  0  4           0  0  0
   -1.5266    0.0001    4.0478 C   0  0  0  0  0  4           0  0  0
   -0.5414    0.0000    1.3968 C   0  0  0  0  0  4           0  0  0
   -1.7491   -0.0071    7.8334 C   0  0  0  0  0  4           0  0  0
   -3.4332    0.0184    5.6172 C   0  0  0  0  0  4           0  0  0
   -1.2875   -1.2050    3.3709 C   0  0  0  0  0  4           0  0  0
   -1.2595    1.2049    3.3811 C   0  0  0  0  0  4           0  0  0
   -0.7989   -1.2050    2.0612 C   0  0  0  0  0  4           0  0  0
   -0.7709    1.2048    2.0716 C   0  0  0  0  0  4           0  0  0
   -3.1317    0.0094    8.0110 C   0  0  0  0  0  4           0  0  0
   -3.9732    0.0228    6.9043 C   0  0  0  0  0  4           0  0  0
    1.7588    2.5128    0.0217 C   0  0  0  0  0  4           0  0  0
    0.0000    0.0000    0.0000 C   0  0  0  0  0  4           0  0  0
    1.7802   -2.5220   -0.0360 C   0  0  0  0  0  4           0  0  0
    2.5555   -3.3808   -1.0306 C   0  0  0  0  0  4           0  0  0
    2.4597   -2.8601   -2.4624 C   0  0  0  0  0  4           0  0  0
    3.2319   -3.7144   -3.4570 C   0  0  0  0  0  4           0  0  0
  1 10  2  0     0  0
  2 27  1  0     0  0
  3 10  1  0     0  0
  4  5  2  0     0  0
  4  6  1  0     0  0
  5  7  1  0     0  0
  6 11  1  0     0  0
  7 11  2  0     0  0
  8 12  1  0     0  0
  8 14  1  0     0  0
  8 28  1  0     0  0
  9 12  2  0     0  0
  9 13  1  0     0  0
 10 13  1  0     0  0
 11 15  1  0     0  0
 12 29  1  0     0  0
 13 14  2  0     0  0
 14 27  1  0     0  0
 15 16  1  0     0  0
 15 19  2  0     0  0
 16 17  1  0     0  0
 16 20  2  0     0  0
 17 21  2  0     0  0
 17 22  1  0     0  0
 18 23  2  0     0  0
 18 24  1  0     0  0
 18 28  1  0     0  0
 19 25  1  0     0  0
 20 26  1  0     0  0
 21 23  1  0     0  0
 22 24  2  0     0  0
 25 26  2  0     0  0
 29 30  1  0     0  0
 30 31  1  0     0  0
 31 32  1  0     0  0
M  CHG  2   3  -1  10   1
M  END
> <standard_type>
pIC50

> <# Confs.>
25

> <canonical_smiles>
CCCCC1=NC([N+]([O-])=O)=C(CO)N1CC2=CC=C(C3=CC=CC=C3C4=NN=NN4)C=C2

> <standard_relation>
=

> <Publication_ID>
nan

> <predicted_activity_value>
7.236572006437063

> <actual_activity_value>
6.585026652029182

> <Compound>
11

> <standard_units>
nM

> hash
10037114687936097660

$$$$
11_
XXILIB    08252103443D 0   0.00000     0.00000

 32 35  0     1  0            999 V2000
    5.8054   -0.5522   -0.1469 O   0  0  0  0  0  2           0  0  0
    1.5680   -2.9191   -1.3704 O   0  0  0  0  0  2           0  0  0
    4.7700   -2.4969   -0.1594 O   0  5  0  0  0  1           0  0  0
   -5.3432   -1.7387    2.8926 N   0  0  0  0  0  3           0  0  0
   -6.0926   -0.7027    3.2388 N   0  0  0  0  0  3           0  0  0
   -4.3087   -1.7185    3.7431 N   0  0  0  0  0  3           0  0  0
   -5.5394   -0.0265    4.2997 N   0  0  0  0  0  3           0  0  0
    1.4527   -0.0000   -0.0000 N   0  0  0  0  0  3           0  0  0
    3.5401    0.7716   -0.0368 N   0  0  0  0  0  3           0  0  0
    4.7921   -1.2608   -0.1281 N   0  3  0  0  0  4           0  0  0
   -4.4242   -0.6629    4.6108 C   0  0  0  0  0  4           0  0  0
    2.2681    1.1183    0.0000 C   0  0  0  0  0  4           0  0  0
    3.5383   -0.5940   -0.0639 C   0  0  0  0  0  4           0  0  0
    2.2634   -1.1226   -0.0301 C   0  0  0  0  0  4           0  0  0
   -3.4772   -0.3378    5.6603 C   0  0  0  0  0  4           0  0  0
   -2.1245   -0.0382    5.3789 C   0  0  0  0  0  4           0  0  0
   -1.5892   -0.0278    4.0235 C   0  0  0  0  0  4           0  0  0
   -0.5414   -0.0000    1.3968 C   0  0  0  0  0  4           0  0  0
   -3.9324   -0.3364    6.9891 C   0  0  0  0  0  4           0  0  0
   -1.2662    0.2588    6.4550 C   0  0  0  0  0  4           0  0  0
   -2.1102    0.8396    3.0521 C   0  0  0  0  0  4           0  0  0
   -0.5406   -0.8855    3.6597 C   0  0  0  0  0  4           0  0  0
   -1.5934    0.8521    1.7533 C   0  0  0  0  0  4           0  0  0
   -0.0240   -0.8730    2.3611 C   0  0  0  0  0  4           0  0  0
   -3.0633   -0.0380    8.0374 C   0  0  0  0  0  4           0  0  0
   -1.7312    0.2587    7.7710 C   0  0  0  0  0  4           0  0  0
    1.7588   -2.5128   -0.0217 C   0  0  0  0  0  4           0  0  0
    0.0000    0.0000    0.0000 C   0  0  0  0  0  4           0  0  0
    1.7802    2.5220    0.0360 C   0  0  0  0  0  4           0  0  0
    1.6232    3.0458    1.4604 C   0  0  0  0  0  4           0  0  0
    1.1224    4.4871    1.5089 C   0  0  0  0  0  4           0  0  0
    0.9648    5.0126    2.9281 C   0  0  0  0  0  4           0  0  0
  1 10  2  0     0  0
  2 27  1  0     0  0
  3 10  1  0     0  0
  4  5  2  0     0  0
  4  6  1  0     0  0
  5  7  1  0     0  0
  6 11  1  0     0  0
  7 11  2  0     0  0
  8 12  1  0     0  0
  8 14  1  0     0  0
  8 28  1  0     0  0
  9 12  2  0     0  0
  9 13  1  0     0  0
 10 13  1  0     0  0
 11 15  1  0     0  0
 12 29  1  0     0  0
 13 14  2  0     0  0
 14 27  1  0     0  0
 15 16  1  0     0  0
 15 19  2  0     0  0
 16 17  1  0     0  0
 16 20  2  0     0  0
 17 21  2  0     0  0
 17 22  1  0     0  0
 18 23  2  0     0  0
 18 24  1  0     0  0
 18 28  1  0     0  0
 19 25  1  0     0  0
 20 26  1  0     0  0
 21 23  1  0     0  0
 22 24  2  0     0  0
 25 26  2  0     0  0
 29 30  1  0     0  0
 30 31  1  0     0  0
 31 32  1  0     0  0
M  CHG  2   3  -1  10   1
M  END
> <standard_type>
pIC50

> <# Confs.>
25

> <canonical_smiles>
CCCCC1=NC([N+]([O-])=O)=C(CO)N1CC2=CC=C(C3=CC=CC=C3C4=NN=NN4)C=C2

> <standard_relation>
=

> <Publication_ID>
nan

> <predicted_activity_value>
7.236572006437063

> <actual_activity_value>
6.585026652029182

> <Compound>
11

> <standard_units>
nM

> hash
10037114687936097660

$$$$
11_
XXILIB    08252103443D 0   0.00000     0.00000

 32 35  0     1  0            999 V2000
    5.8054   -0.5522   -0.1469 O   0  0  0  0  0  2           0  0  0
    1.5680   -2.9191   -1.3704 O   0  0  0  0  0  2           0  0  0
    4.7700   -2.4969   -0.1594 O   0  5  0  0  0  1           0  0  0
   -0.0711    3.8490    5.0201 N   0  0  0  0  0  3           0  0  0
   -1.2459    4.4322    5.2050 N   0  0  0  0  0  3           0  0  0
   -0.2609    2.5688    5.3651 N   0  0  0  0  0  3           0  0  0
   -2.1764    3.5320    5.6660 N   0  0  0  0  0  3           0  0  0
    1.4527   -0.0000   -0.0000 N   0  0  0  0  0  3           0  0  0
    3.5401    0.7716   -0.0368 N   0  0  0  0  0  3           0  0  0
    4.7921   -1.2608   -0.1281 N   0  3  0  0  0  4           0  0  0
   -1.5569    2.3693    5.7665 C   0  0  0  0  0  4           0  0  0
    2.2681    1.1183    0.0000 C   0  0  0  0  0  4           0  0  0
    3.5383   -0.5940   -0.0639 C   0  0  0  0  0  4           0  0  0
    2.2634   -1.1226   -0.0301 C   0  0  0  0  0  4           0  0  0
   -2.1070    1.1035    6.2125 C   0  0  0  0  0  4           0  0  0
   -2.1245   -0.0382    5.3789 C   0  0  0  0  0  4           0  0  0
   -1.5892   -0.0278    4.0235 C   0  0  0  0  0  4           0  0  0
   -0.5414    0.0000    1.3968 C   0  0  0  0  0  4           0  0  0
   -2.6431    1.0318    7.5087 C   0  0  0  0  0  4           0  0  0
   -2.6844   -1.2277    5.8835 C   0  0  0  0  0  4           0  0  0
   -2.1102    0.8396    3.0521 C   0  0  0  0  0  4           0  0  0
   -0.5406   -0.8855    3.6597 C   0  0  0  0  0  4           0  0  0
   -1.5934    0.8521    1.7533 C   0  0  0  0  0  4           0  0  0
   -0.0240   -0.8730    2.3611 C   0  0  0  0  0  4           0  0  0
   -3.1911   -0.1579    7.9860 C   0  0  0  0  0  4           0  0  0
   -3.2124   -1.2866    7.1742 C   0  0  0  0  0  4           0  0  0
    1.7588   -2.5128   -0.0217 C   0  0  0  0  0  4           0  0  0
    0.0000    0.0000    0.0000 C   0  0  0  0  0  4           0  0  0
    1.7802    2.5220    0.0360 C   0  0  0  0  0  4           0  0  0
    1.5560    3.0948   -1.3602 C   0  0  0  0  0  4           0  0  0
    2.8272    3.1076   -2.2055 C   0  0  0  0  0  4           0  0  0
    2.6071    3.6783   -3.5987 C   0  0  0  0  0  4           0  0  0
  1 10  2  0     0  0
  2 27  1  0     0  0
  3 10  1  0     0  0
  4  5  2  0     0  0
  4  6  1  0     0  0
  5  7  1  0     0  0
  6 11  1  0     0  0
  7 11  2  0     0  0
  8 12  1  0     0  0
  8 14  1  0     0  0
  8 28  1  0     0  0
  9 12  2  0     0  0
  9 13  1  0     0  0
 10 13  1  0     0  0
 11 15  1  0     0  0
 12 29  1  0     0  0
 13 14  2  0     0  0
 14 27  1  0     0  0
 15 16  1  0     0  0
 15 19  2  0     0  0
 16 17  1  0     0  0
 16 20  2  0     0  0
 17 21  2  0     0  0
 17 22  1  0     0  0
 18 23  2  0     0  0
 18 24  1  0     0  0
 18 28  1  0     0  0
 19 25  1  0     0  0
 20 26  1  0     0  0
 21 23  1  0     0  0
 22 24  2  0     0  0
 25 26  2  0     0  0
 29 30  1  0     0  0
 30 31  1  0     0  0
 31 32  1  0     0  0
M  CHG  2   3  -1  10   1
M  END
> <standard_type>
pIC50

> <# Confs.>
25

> <canonical_smiles>
CCCCC1=NC([N+]([O-])=O)=C(CO)N1CC2=CC=C(C3=CC=CC=C3C4=NN=NN4)C=C2

> <standard_relation>
=

> <Publication_ID>
nan

> <predicted_activity_value>
7.236572006437063

> <actual_activity_value>
6.585026652029182

> <Compound>
11

> <standard_units>
nM

> hash
10037114687936097660

$$$$
11_
XXILIB    08252103443D 0   0.00000     0.00000

 32 35  0     1  0            999 V2000
    5.8054   -0.5522   -0.1469 O   0  0  0  0  0  2           0  0  0
    1.5680   -2.9191   -1.3704 O   0  0  0  0  0  2           0  0  0
    4.7700   -2.4969   -0.1594 O   0  5  0  0  0  1           0  0  0
    2.0694   -1.5543    5.7656 N   0  0  0  0  0  3           0  0  0
    1.5501   -2.6924    6.2009 N   0  0  0  0  0  3           0  0  0
    1.0660   -0.6692    5.8262 N   0  0  0  0  0  3           0  0  0
    0.2261   -2.5348    6.5343 N   0  0  0  0  0  3           0  0  0
    1.4527   -0.0000   -0.0000 N   0  0  0  0  0  3           0  0  0
    3.5401    0.7716   -0.0368 N   0  0  0  0  0  3           0  0  0
    4.7921   -1.2608   -0.1281 N   0  3  0  0  0  4           0  0  0
   -0.0732   -1.2700    6.2972 C   0  0  0  0  0  4           0  0  0
    2.2681    1.1183    0.0000 C   0  0  0  0  0  4           0  0  0
    3.5383   -0.5940   -0.0639 C   0  0  0  0  0  4           0  0  0
    2.2634   -1.1226   -0.0301 C   0  0  0  0  0  4           0  0  0
   -1.3497   -0.6073    6.4849 C   0  0  0  0  0  4           0  0  0
   -2.0403    0.0008    5.4116 C   0  0  0  0  0  4           0  0  0
   -1.5266    0.0001    4.0478 C   0  0  0  0  0  4           0  0  0
   -0.5414    0.0000    1.3968 C   0  0  0  0  0  4           0  0  0
   -1.8946   -0.5689    7.7789 C   0  0  0  0  0  4           0  0  0
   -3.2707    0.6316    5.6781 C   0  0  0  0  0  4           0  0  0
   -1.2875   -1.2050    3.3709 C   0  0  0  0  0  4           0  0  0
   -1.2595    1.2049    3.3811 C   0  0  0  0  0  4           0  0  0
   -0.7989   -1.2050    2.0612 C   0  0  0  0  0  4           0  0  0
   -0.7709    1.2048    2.0716 C   0  0  0  0  0  4           0  0  0
   -3.1151    0.0610    8.0173 C   0  0  0  0  0  4           0  0  0
   -3.8024    0.6614    6.9682 C   0  0  0  0  0  4           0  0  0
    1.7588   -2.5128   -0.0217 C   0  0  0  0  0  4           0  0  0
    0.0000    0.0000    0.0000 C   0  0  0  0  0  4           0  0  0
    1.7802    2.5220    0.0360 C   0  0  0  0  0  4           0  0  0
    2.5079    3.4155   -0.9639 C   0  0  0  0  0  4           0  0  0
    2.0144    4.8599   -0.9352 C   0  0  0  0  0  4           0  0  0
    2.7382    5.7537   -1.9313 C   0  0  0  0  0  4           0  0  0
  1 10  2  0     0  0
  2 27  1  0     0  0
  3 10  1  0     0  0
  4  5  2  0     0  0
  4  6  1  0     0  0
  5  7  1  0     0  0
  6 11  1  0     0  0
  7 11  2  0     0  0
  8 12  1  0     0  0
  8 14  1  0     0  0
  8 28  1  0     0  0
  9 12  2  0     0  0
  9 13  1  0     0  0
 10 13  1  0     0  0
 11 15  1  0     0  0
 12 29  1  0     0  0
 13 14  2  0     0  0
 14 27  1  0     0  0
 15 16  1  0     0  0
 15 19  2  0     0  0
 16 17  1  0     0  0
 16 20  2  0     0  0
 17 21  2  0     0  0
 17 22  1  0     0  0
 18 23  2  0     0  0
 18 24  1  0     0  0
 18 28  1  0     0  0
 19 25  1  0     0  0
 20 26  1  0     0  0
 21 23  1  0     0  0
 22 24  2  0     0  0
 25 26  2  0     0  0
 29 30  1  0     0  0
 30 31  1  0     0  0
 31 32  1  0     0  0
M  CHG  2   3  -1  10   1
M  END
> <standard_type>
pIC50

> <# Confs.>
25

> <canonical_smiles>
CCCCC1=NC([N+]([O-])=O)=C(CO)N1CC2=CC=C(C3=CC=CC=C3C4=NN=NN4)C=C2

> <standard_relation>
=

> <Publication_ID>
nan

> <predicted_activity_value>
7.236572006437063

> <actual_activity_value>
6.585026652029182

> <Compound>
11

> <standard_units>
nM

> hash
10037114687936097660

$$$$
11_
XXILIB    08252103443D 0   0.00000     0.00000

 32 35  0     1  0            999 V2000
    5.8054   -0.5522   -0.1469 O   0  0  0  0  0  2           0  0  0
    1.5680   -2.9191   -1.3704 O   0  0  0  0  0  2           0  0  0
    4.7700   -2.4969   -0.1594 O   0  5  0  0  0  1           0  0  0
    1.8880   -1.7479    5.7794 N   0  0  0  0  0  3           0  0  0
    2.2161   -0.7193    6.5468 N   0  0  0  0  0  3           0  0  0
    0.5533   -1.6956    5.6807 N   0  0  0  0  0  3           0  0  0
    1.0998   -0.0183    6.9357 N   0  0  0  0  0  3           0  0  0
    1.4527   -0.0000   -0.0000 N   0  0  0  0  0  3           0  0  0
    3.5401    0.7716   -0.0368 N   0  0  0  0  0  3           0  0  0
    4.7921   -1.2608   -0.1281 N   0  3  0  0  0  4           0  0  0
    0.0628   -0.6322    6.3942 C   0  0  0  0  0  4           0  0  0
    2.2681    1.1183    0.0000 C   0  0  0  0  0  4           0  0  0
    3.5383   -0.5940   -0.0639 C   0  0  0  0  0  4           0  0  0
    2.2634   -1.1226   -0.0301 C   0  0  0  0  0  4           0  0  0
   -1.3396   -0.2805    6.5099 C   0  0  0  0  0  4           0  0  0
   -2.1255    0.0371    5.3785 C   0  0  0  0  0  4           0  0  0
   -1.5893    0.0278    4.0235 C   0  0  0  0  0  4           0  0  0
   -0.5414    0.0000    1.3968 C   0  0  0  0  0  4           0  0  0
   -1.9133   -0.2490    7.7916 C   0  0  0  0  0  4           0  0  0
   -3.4778    0.3768    5.5760 C   0  0  0  0  0  4           0  0  0
   -0.5212    0.8646    3.6680 C   0  0  0  0  0  4           0  0  0
   -2.1294   -0.8184    3.0439 C   0  0  0  0  0  4           0  0  0
   -0.0044    0.8521    2.3692 C   0  0  0  0  0  4           0  0  0
   -1.6127   -0.8309    1.7453 C   0  0  0  0  0  4           0  0  0
   -3.2549    0.0894    7.9612 C   0  0  0  0  0  4           0  0  0
   -4.0365    0.4027    6.8548 C   0  0  0  0  0  4           0  0  0
    1.7588   -2.5128   -0.0217 C   0  0  0  0  0  4           0  0  0
    0.0000    0.0000    0.0000 C   0  0  0  0  0  4           0  0  0
    1.7802    2.5220    0.0360 C   0  0  0  0  0  4           0  0  0
    2.5079    3.4155   -0.9639 C   0  0  0  0  0  4           0  0  0
    2.0144    4.8599   -0.9352 C   0  0  0  0  0  4           0  0  0
    2.7382    5.7537   -1.9313 C   0  0  0  0  0  4           0  0  0
  1 10  2  0     0  0
  2 27  1  0     0  0
  3 10  1  0     0  0
  4  5  2  0     0  0
  4  6  1  0     0  0
  5  7  1  0     0  0
  6 11  1  0     0  0
  7 11  2  0     0  0
  8 12  1  0     0  0
  8 14  1  0     0  0
  8 28  1  0     0  0
  9 12  2  0     0  0
  9 13  1  0     0  0
 10 13  1  0     0  0
 11 15  1  0     0  0
 12 29  1  0     0  0
 13 14  2  0     0  0
 14 27  1  0     0  0
 15 16  1  0     0  0
 15 19  2  0     0  0
 16 17  1  0     0  0
 16 20  2  0     0  0
 17 21  2  0     0  0
 17 22  1  0     0  0
 18 23  2  0     0  0
 18 24  1  0     0  0
 18 28  1  0     0  0
 19 25  1  0     0  0
 20 26  1  0     0  0
 21 23  1  0     0  0
 22 24  2  0     0  0
 25 26  2  0     0  0
 29 30  1  0     0  0
 30 31  1  0     0  0
 31 32  1  0     0  0
M  CHG  2   3  -1  10   1
M  END
> <standard_type>
pIC50

> <# Confs.>
25

> <canonical_smiles>
CCCCC1=NC([N+]([O-])=O)=C(CO)N1CC2=CC=C(C3=CC=CC=C3C4=NN=NN4)C=C2

> <standard_relation>
=

> <Publication_ID>
nan

> <predicted_activity_value>
7.236572006437063

> <actual_activity_value>
6.585026652029182

> <Compound>
11

> <standard_units>
nM

> hash
10037114687936097660

$$$$
11_
XXILIB    08252103443D 0   0.00000     0.00000

 32 35  0     1  0            999 V2000
    5.8054   -0.5522   -0.1469 O   0  0  0  0  0  2           0  0  0
    1.5680   -2.9191   -1.3704 O   0  0  0  0  0  2           0  0  0
    4.7700   -2.4969   -0.1594 O   0  5  0  0  0  1           0  0  0
    2.0694   -1.5543    5.7656 N   0  0  0  0  0  3           0  0  0
    1.5501   -2.6924    6.2009 N   0  0  0  0  0  3           0  0  0
    1.0660   -0.6692    5.8262 N   0  0  0  0  0  3           0  0  0
    0.2261   -2.5348    6.5343 N   0  0  0  0  0  3           0  0  0
    1.4527   -0.0000   -0.0000 N   0  0  0  0  0  3           0  0  0
    3.5401    0.7716   -0.0368 N   0  0  0  0  0  3           0  0  0
    4.7921   -1.2608   -0.1281 N   0  3  0  0  0  4           0  0  0
   -0.0732   -1.2700    6.2972 C   0  0  0  0  0  4           0  0  0
    2.2681    1.1183    0.0000 C   0  0  0  0  0  4           0  0  0
    3.5383   -0.5940   -0.0639 C   0  0  0  0  0  4           0  0  0
    2.2634   -1.1226   -0.0301 C   0  0  0  0  0  4           0  0  0
   -1.3497   -0.6073    6.4849 C   0  0  0  0  0  4           0  0  0
   -2.0403    0.0008    5.4116 C   0  0  0  0  0  4           0  0  0
   -1.5266    0.0001    4.0478 C   0  0  0  0  0  4           0  0  0
   -0.5414    0.0000    1.3968 C   0  0  0  0  0  4           0  0  0
   -1.8946   -0.5689    7.7789 C   0  0  0  0  0  4           0  0  0
   -3.2707    0.6316    5.6781 C   0  0  0  0  0  4           0  0  0
   -1.2875   -1.2050    3.3709 C   0  0  0  0  0  4           0  0  0
   -1.2595    1.2049    3.3811 C   0  0  0  0  0  4           0  0  0
   -0.7989   -1.2050    2.0612 C   0  0  0  0  0  4           0  0  0
   -0.7709    1.2048    2.0716 C   0  0  0  0  0  4           0  0  0
   -3.1151    0.0610    8.0173 C   0  0  0  0  0  4           0  0  0
   -3.8024    0.6614    6.9682 C   0  0  0  0  0  4           0  0  0
    1.7588   -2.5128   -0.0217 C   0  0  0  0  0  4           0  0  0
    0.0000    0.0000    0.0000 C   0  0  0  0  0  4           0  0  0
    1.7802    2.5220    0.0360 C   0  0  0  0  0  4           0  0  0
    2.5079    3.4155   -0.9639 C   0  0  0  0  0  4           0  0  0
    2.3437    2.9447   -2.4068 C   0  0  0  0  0  4           0  0  0
    3.0683    3.8336   -3.4067 C   0  0  0  0  0  4           0  0  0
  1 10  2  0     0  0
  2 27  1  0     0  0
  3 10  1  0     0  0
  4  5  2  0     0  0
  4  6  1  0     0  0
  5  7  1  0     0  0
  6 11  1  0     0  0
  7 11  2  0     0  0
  8 12  1  0     0  0
  8 14  1  0     0  0
  8 28  1  0     0  0
  9 12  2  0     0  0
  9 13  1  0     0  0
 10 13  1  0     0  0
 11 15  1  0     0  0
 12 29  1  0     0  0
 13 14  2  0     0  0
 14 27  1  0     0  0
 15 16  1  0     0  0
 15 19  2  0     0  0
 16 17  1  0     0  0
 16 20  2  0     0  0
 17 21  2  0     0  0
 17 22  1  0     0  0
 18 23  2  0     0  0
 18 24  1  0     0  0
 18 28  1  0     0  0
 19 25  1  0     0  0
 20 26  1  0     0  0
 21 23  1  0     0  0
 22 24  2  0     0  0
 25 26  2  0     0  0
 29 30  1  0     0  0
 30 31  1  0     0  0
 31 32  1  0     0  0
M  CHG  2   3  -1  10   1
M  END
> <standard_type>
pIC50

> <# Confs.>
25

> <canonical_smiles>
CCCCC1=NC([N+]([O-])=O)=C(CO)N1CC2=CC=C(C3=CC=CC=C3C4=NN=NN4)C=C2

> <standard_relation>
=

> <Publication_ID>
nan

> <predicted_activity_value>
7.236572006437063

> <actual_activity_value>
6.585026652029182

> <Compound>
11

> <standard_units>
nM

> hash
10037114687936097660

$$$$
11_
XXILIB    08252103443D 0   0.00000     0.00000

 32 35  0     1  0            999 V2000
    5.8054   -0.5522   -0.1469 O   0  0  0  0  0  2           0  0  0
    1.5680   -2.9191   -1.3704 O   0  0  0  0  0  2           0  0  0
    4.7700   -2.4969   -0.1594 O   0  5  0  0  0  1           0  0  0
    1.8880   -1.7479    5.7794 N   0  0  0  0  0  3           0  0  0
    2.2161   -0.7193    6.5468 N   0  0  0  0  0  3           0  0  0
    0.5533   -1.6956    5.6807 N   0  0  0  0  0  3           0  0  0
    1.0998   -0.0183    6.9357 N   0  0  0  0  0  3           0  0  0
    1.4527   -0.0000   -0.0000 N   0  0  0  0  0  3           0  0  0
    3.5401    0.7716   -0.0368 N   0  0  0  0  0  3           0  0  0
    4.7921   -1.2608   -0.1281 N   0  3  0  0  0  4           0  0  0
    0.0628   -0.6322    6.3942 C   0  0  0  0  0  4           0  0  0
    2.2681    1.1183    0.0000 C   0  0  0  0  0  4           0  0  0
    3.5383   -0.5940   -0.0639 C   0  0  0  0  0  4           0  0  0
    2.2634   -1.1226   -0.0301 C   0  0  0  0  0  4           0  0  0
   -1.3396   -0.2805    6.5099 C   0  0  0  0  0  4           0  0  0
   -2.1255    0.0371    5.3785 C   0  0  0  0  0  4           0  0  0
   -1.5893    0.0278    4.0235 C   0  0  0  0  0  4           0  0  0
   -0.5414    0.0000    1.3968 C   0  0  0  0  0  4           0  0  0
   -1.9133   -0.2490    7.7916 C   0  0  0  0  0  4           0  0  0
   -3.4778    0.3768    5.5760 C   0  0  0  0  0  4           0  0  0
   -0.5212    0.8646    3.6680 C   0  0  0  0  0  4           0  0  0
   -2.1294   -0.8184    3.0439 C   0  0  0  0  0  4           0  0  0
   -0.0044    0.8521    2.3692 C   0  0  0  0  0  4           0  0  0
   -1.6127   -0.8309    1.7453 C   0  0  0  0  0  4           0  0  0
   -3.2549    0.0894    7.9612 C   0  0  0  0  0  4           0  0  0
   -4.0365    0.4027    6.8548 C   0  0  0  0  0  4           0  0  0
    1.7588   -2.5128   -0.0217 C   0  0  0  0  0  4           0  0  0
    0.0000    0.0000    0.0000 C   0  0  0  0  0  4           0  0  0
    1.7802    2.5220    0.0360 C   0  0  0  0  0  4           0  0  0
    2.5079    3.4155   -0.9639 C   0  0  0  0  0  4           0  0  0
    2.3437    2.9447   -2.4068 C   0  0  0  0  0  4           0  0  0
    3.0683    3.8336   -3.4067 C   0  0  0  0  0  4           0  0  0
  1 10  2  0     0  0
  2 27  1  0     0  0
  3 10  1  0     0  0
  4  5  2  0     0  0
  4  6  1  0     0  0
  5  7  1  0     0  0
  6 11  1  0     0  0
  7 11  2  0     0  0
  8 12  1  0     0  0
  8 14  1  0     0  0
  8 28  1  0     0  0
  9 12  2  0     0  0
  9 13  1  0     0  0
 10 13  1  0     0  0
 11 15  1  0     0  0
 12 29  1  0     0  0
 13 14  2  0     0  0
 14 27  1  0     0  0
 15 16  1  0     0  0
 15 19  2  0     0  0
 16 17  1  0     0  0
 16 20  2  0     0  0
 17 21  2  0     0  0
 17 22  1  0     0  0
 18 23  2  0     0  0
 18 24  1  0     0  0
 18 28  1  0     0  0
 19 25  1  0     0  0
 20 26  1  0     0  0
 21 23  1  0     0  0
 22 24  2  0     0  0
 25 26  2  0     0  0
 29 30  1  0     0  0
 30 31  1  0     0  0
 31 32  1  0     0  0
M  CHG  2   3  -1  10   1
M  END
> <standard_type>
pIC50

> <# Confs.>
25

> <canonical_smiles>
CCCCC1=NC([N+]([O-])=O)=C(CO)N1CC2=CC=C(C3=CC=CC=C3C4=NN=NN4)C=C2

> <standard_relation>
=

> <Publication_ID>
nan

> <predicted_activity_value>
7.236572006437063

> <actual_activity_value>
6.585026652029182

> <Compound>
11

> <standard_units>
nM

> hash
10037114687936097660

$$$$
11_
XXILIB    08252103443D 0   0.00000     0.00000

 32 35  0     1  0            999 V2000
    5.8054    0.5522    0.1469 O   0  0  0  0  0  2           0  0  0
    1.5680    2.9191    1.3704 O   0  0  0  0  0  2           0  0  0
    4.7700    2.4969    0.1594 O   0  5  0  0  0  1           0  0  0
   -5.5844    0.7136    2.8843 N   0  0  0  0  0  3           0  0  0
   -6.0786   -0.4280    3.3392 N   0  0  0  0  0  3           0  0  0
   -4.5585    0.9963    3.6976 N   0  0  0  0  0  3           0  0  0
   -5.3751   -0.8684    4.4346 N   0  0  0  0  0  3           0  0  0
    1.4527    0.0000    0.0000 N   0  0  0  0  0  3           0  0  0
    3.5401   -0.7716    0.0368 N   0  0  0  0  0  3           0  0  0
    4.7921    1.2608    0.1281 N   0  3  0  0  0  4           0  0  0
   -4.4273    0.0249    4.6566 C   0  0  0  0  0  4           0  0  0
    2.2681   -1.1183    0.0000 C   0  0  0  0  0  4           0  0  0
    3.5383    0.5940    0.0639 C   0  0  0  0  0  4           0  0  0
    2.2634    1.1226    0.0301 C   0  0  0  0  0  4           0  0  0
   -3.4234    0.0158    5.7035 C   0  0  0  0  0  4           0  0  0
   -2.0403    0.0008    5.4116 C   0  0  0  0  0  4           0  0  0
   -1.5266    0.0001    4.0478 C   0  0  0  0  0  4           0  0  0
   -0.5414    0.0000    1.3968 C   0  0  0  0  0  4           0  0  0
   -3.8567    0.0107    7.0396 C   0  0  0  0  0  4           0  0  0
   -1.1291   -0.0162    6.4850 C   0  0  0  0  0  4           0  0  0
   -1.2875   -1.2050    3.3709 C   0  0  0  0  0  4           0  0  0
   -1.2595    1.2049    3.3811 C   0  0  0  0  0  4           0  0  0
   -0.7989   -1.2050    2.0612 C   0  0  0  0  0  4           0  0  0
   -0.7709    1.2048    2.0716 C   0  0  0  0  0  4           0  0  0
   -2.9348   -0.0051    8.0852 C   0  0  0  0  0  4           0  0  0
   -1.5723   -0.0192    7.8085 C   0  0  0  0  0  4           0  0  0
    1.7588    2.5128    0.0217 C   0  0  0  0  0  4           0  0  0
    0.0000    0.0000   -0.0000 C   0  0  0  0  0  4           0  0  0
    1.7802   -2.5220   -0.0360 C   0  0  0  0  0  4           0  0  0
    2.5079   -3.4155    0.9639 C   0  0  0  0  0  4           0  0  0
    2.0144   -4.8599    0.9352 C   0  0  0  0  0  4           0  0  0
    2.7382   -5.7537    1.9313 C   0  0  0  0  0  4           0  0  0
  1 10  2  0     0  0
  2 27  1  0     0  0
  3 10  1  0     0  0
  4  5  2  0     0  0
  4  6  1  0     0  0
  5  7  1  0     0  0
  6 11  1  0     0  0
  7 11  2  0     0  0
  8 12  1  0     0  0
  8 14  1  0     0  0
  8 28  1  0     0  0
  9 12  2  0     0  0
  9 13  1  0     0  0
 10 13  1  0     0  0
 11 15  1  0     0  0
 12 29  1  0     0  0
 13 14  2  0     0  0
 14 27  1  0     0  0
 15 16  1  0     0  0
 15 19  2  0     0  0
 16 17  1  0     0  0
 16 20  2  0     0  0
 17 21  2  0     0  0
 17 22  1  0     0  0
 18 23  2  0     0  0
 18 24  1  0     0  0
 18 28  1  0     0  0
 19 25  1  0     0  0
 20 26  1  0     0  0
 21 23  1  0     0  0
 22 24  2  0     0  0
 25 26  2  0     0  0
 29 30  1  0     0  0
 30 31  1  0     0  0
 31 32  1  0     0  0
M  CHG  2   3  -1  10   1
M  END
> <standard_type>
pIC50

> <# Confs.>
25

> <canonical_smiles>
CCCCC1=NC([N+]([O-])=O)=C(CO)N1CC2=CC=C(C3=CC=CC=C3C4=NN=NN4)C=C2

> <standard_relation>
=

> <Publication_ID>
nan

> <predicted_activity_value>
7.236572006437063

> <actual_activity_value>
6.585026652029182

> <Compound>
11

> <standard_units>
nM

> hash
10037114687936097660

$$$$
9_
XXILIB    08252103443D 0   0.00000     0.00000

 28 30  0     1  0            999 V2000
    5.0174   -1.4738    0.0638 Cl  0  0  0  0  0  1           0  0  0
    0.8402   -1.0452    6.0072 O   0  0  0  0  0  2           0  0  0
    1.1469   -3.0051   -0.8571 O   0  0  0  0  0  2           0  0  0
    0.8175    0.9682    7.0761 O   0  0  0  0  0  2           0  0  0
    1.4526    0.0000   -0.0000 N   0  0  0  0  0  3           0  0  0
    3.5362    0.7636    0.0243 N   0  0  0  0  0  3           0  0  0
    3.5476   -0.6067    0.0388 C   0  0  0  0  0  4           0  0  0
    2.2673    1.1150    0.0000 C   0  0  0  0  0  4           0  0  0
    2.2620   -1.1225    0.0230 C   0  0  0  0  0  4           0  0  0
   -2.0534    0.0028    5.4200 C   0  0  0  0  0  4           0  0  0
   -1.5335    0.0015    4.0456 C   0  0  0  0  0  4           0  0  0
   -1.2318   -0.0089    6.5696 C   0  0  0  0  0  4           0  0  0
   -0.5423    0.0000    1.3965 C   0  0  0  0  0  4           0  0  0
   -3.4468    0.0534    5.6299 C   0  0  0  0  0  4           0  0  0
   -1.2917   -1.2040    3.3703 C   0  0  0  0  0  4           0  0  0
   -1.2664    1.2059    3.3782 C   0  0  0  0  0  4           0  0  0
   -1.7794    0.0663    7.8589 C   0  0  0  0  0  4           0  0  0
   -0.8005   -1.2048    2.0615 C   0  0  0  0  0  4           0  0  0
   -0.7741    1.2054    2.0700 C   0  0  0  0  0  4           0  0  0
   -3.9928    0.1154    6.9155 C   0  0  0  0  0  4           0  0  0
   -3.1593    0.1281    8.0281 C   0  0  0  0  0  4           0  0  0
    0.2363   -0.1109    6.5061 C   0  0  0  0  0  4           0  0  0
    1.8272   -2.4870    0.0227 C   0  0  0  0  0  4           0  0  0
   -0.0000    0.0000    0.0000 C   0  0  0  0  0  4           0  0  0
    1.7835    2.5224   -0.0227 C   0  0  0  0  0  4           0  0  0
    2.0712    4.8117   -1.0494 C   0  0  0  0  0  4           0  0  0
    1.5779    5.4097   -2.1395 C   0  0  0  0  0  4           0  0  0
    2.5519    3.3902   -1.0191 C   0  0  0  0  0  4           0  0  0
  1  7  1  0     0  0
  2 22  2  0     0  0
  3 23  2  0     0  0
  4 22  1  0     0  0
  5  8  1  0     0  0
  5  9  1  0     0  0
  5 24  1  0     0  0
  6  7  1  0     0  0
  6  8  2  0     0  0
  7  9  2  0     0  0
  8 25  1  0     0  0
  9 23  1  0     0  0
 10 11  1  0     0  0
 10 12  1  0     0  0
 10 14  2  0     0  0
 11 15  2  0     0  0
 11 16  1  0     0  0
 12 17  2  0     0  0
 12 22  1  0     0  0
 13 18  2  0     0  0
 13 19  1  0     0  0
 13 24  1  0     0  0
 14 20  1  0     0  0
 15 18  1  0     0  0
 16 19  2  0     0  0
 17 21  1  0     0  0
 20 21  2  0     0  0
 25 28  1  0     0  0
 26 27  2  0     0  0
 26 28  1  0     0  0
M  END
> <standard_type>
pIC50

> <# Confs.>
25

> <canonical_smiles>
ClC(N=C1CCC=C)=C(C=O)N1CC2=CC=C(C3=CC=CC=C3C(O)=O)C=C2

> <standard_relation>
=

> <Publication_ID>
nan

> <predicted_activity_value>
7.3979400086720375

> <actual_activity_value>
6.657577319177793

> <Compound>
9

> <standard_units>
nM

> hash
10268325833990702466

$$$$
9_
XXILIB    08252103443D 0   0.00000     0.00000

 28 30  0     1  0            999 V2000
    5.0174   -1.4738    0.0638 Cl  0  0  0  0  0  1           0  0  0
   -4.6106    1.0499    3.9433 O   0  0  0  0  0  2           0  0  0
    1.1469   -3.0051   -0.8571 O   0  0  0  0  0  2           0  0  0
   -5.3023   -0.9616    4.7630 O   0  0  0  0  0  2           0  0  0
    1.4526    0.0000   -0.0000 N   0  0  0  0  0  3           0  0  0
    3.5362    0.7636    0.0243 N   0  0  0  0  0  3           0  0  0
    3.5476   -0.6067    0.0388 C   0  0  0  0  0  4           0  0  0
    2.2673    1.1150    0.0000 C   0  0  0  0  0  4           0  0  0
    2.2620   -1.1225    0.0230 C   0  0  0  0  0  4           0  0  0
   -2.0534    0.0028    5.4200 C   0  0  0  0  0  4           0  0  0
   -1.5335    0.0015    4.0456 C   0  0  0  0  0  4           0  0  0
   -3.4302    0.0159    5.7379 C   0  0  0  0  0  4           0  0  0
   -0.5423    0.0000    1.3965 C   0  0  0  0  0  4           0  0  0
   -1.1479   -0.0466    6.4996 C   0  0  0  0  0  4           0  0  0
   -1.2917   -1.2040    3.3703 C   0  0  0  0  0  4           0  0  0
   -1.2664    1.2059    3.3782 C   0  0  0  0  0  4           0  0  0
   -3.8731   -0.0567    7.0670 C   0  0  0  0  0  4           0  0  0
   -0.8005   -1.2048    2.0615 C   0  0  0  0  0  4           0  0  0
   -0.7741    1.2054    2.0700 C   0  0  0  0  0  4           0  0  0
   -1.5895   -0.1061    7.8248 C   0  0  0  0  0  4           0  0  0
   -2.9507   -0.1174    8.1072 C   0  0  0  0  0  4           0  0  0
   -4.4887    0.1168    4.7186 C   0  0  0  0  0  4           0  0  0
    1.8272   -2.4870    0.0227 C   0  0  0  0  0  4           0  0  0
   -0.0000    0.0000    0.0000 C   0  0  0  0  0  4           0  0  0
    1.7835    2.5224   -0.0227 C   0  0  0  0  0  4           0  0  0
    2.0712    4.8117   -1.0494 C   0  0  0  0  0  4           0  0  0
    1.5779    5.4097   -2.1395 C   0  0  0  0  0  4           0  0  0
    2.5519    3.3902   -1.0191 C   0  0  0  0  0  4           0  0  0
  1  7  1  0     0  0
  2 22  2  0     0  0
  3 23  2  0     0  0
  4 22  1  0     0  0
  5  8  1  0     0  0
  5  9  1  0     0  0
  5 24  1  0     0  0
  6  7  1  0     0  0
  6  8  2  0     0  0
  7  9  2  0     0  0
  8 25  1  0     0  0
  9 23  1  0     0  0
 10 11  1  0     0  0
 10 12  1  0     0  0
 10 14  2  0     0  0
 11 15  2  0     0  0
 11 16  1  0     0  0
 12 17  2  0     0  0
 12 22  1  0     0  0
 13 18  2  0     0  0
 13 19  1  0     0  0
 13 24  1  0     0  0
 14 20  1  0     0  0
 15 18  1  0     0  0
 16 19  2  0     0  0
 17 21  1  0     0  0
 20 21  2  0     0  0
 25 28  1  0     0  0
 26 27  2  0     0  0
 26 28  1  0     0  0
M  END
> <standard_type>
pIC50

> <# Confs.>
25

> <canonical_smiles>
ClC(N=C1CCC=C)=C(C=O)N1CC2=CC=C(C3=CC=CC=C3C(O)=O)C=C2

> <standard_relation>
=

> <Publication_ID>
nan

> <predicted_activity_value>
7.3979400086720375

> <actual_activity_value>
6.657577319177793

> <Compound>
9

> <standard_units>
nM

> hash
10268325833990702466

$$$$
9_
XXILIB    08252103443D 0   0.00000     0.00000

 28 30  0     1  0            999 V2000
    5.0174   -1.4738    0.0638 Cl  0  0  0  0  0  1           0  0  0
   -4.2140   -2.3303    4.4726 O   0  0  0  0  0  2           0  0  0
    1.1469   -3.0051   -0.8571 O   0  0  0  0  0  2           0  0  0
   -5.0941   -0.2301    4.3656 O   0  0  0  0  0  2           0  0  0
    1.4526    0.0000   -0.0000 N   0  0  0  0  0  3           0  0  0
    3.5362    0.7636    0.0243 N   0  0  0  0  0  3           0  0  0
    3.5476   -0.6067    0.0388 C   0  0  0  0  0  4           0  0  0
    2.2673    1.1150    0.0000 C   0  0  0  0  0  4           0  0  0
    2.2620   -1.1225    0.0230 C   0  0  0  0  0  4           0  0  0
   -2.0534    0.0028    5.4200 C   0  0  0  0  0  4           0  0  0
   -1.5335    0.0015    4.0456 C   0  0  0  0  0  4           0  0  0
   -3.2890   -0.5734    5.7919 C   0  0  0  0  0  4           0  0  0
   -0.5423    0.0000    1.3965 C   0  0  0  0  0  4           0  0  0
   -1.2783    0.5746    6.4497 C   0  0  0  0  0  4           0  0  0
   -1.2917   -1.2040    3.3703 C   0  0  0  0  0  4           0  0  0
   -1.2664    1.2059    3.3782 C   0  0  0  0  0  4           0  0  0
   -3.7043   -0.6081    7.1314 C   0  0  0  0  0  4           0  0  0
   -0.8005   -1.2048    2.0615 C   0  0  0  0  0  4           0  0  0
   -0.7741    1.2054    2.0700 C   0  0  0  0  0  4           0  0  0
   -1.6985    0.5512    7.7829 C   0  0  0  0  0  4           0  0  0
   -2.9072   -0.0452    8.1236 C   0  0  0  0  0  4           0  0  0
   -4.2258   -1.1614    4.8192 C   0  0  0  0  0  4           0  0  0
    1.8272   -2.4870    0.0227 C   0  0  0  0  0  4           0  0  0
   -0.0000    0.0000    0.0000 C   0  0  0  0  0  4           0  0  0
    1.7835    2.5224   -0.0227 C   0  0  0  0  0  4           0  0  0
    2.0712    4.8117   -1.0494 C   0  0  0  0  0  4           0  0  0
    1.5779    5.4097   -2.1395 C   0  0  0  0  0  4           0  0  0
    2.5519    3.3902   -1.0191 C   0  0  0  0  0  4           0  0  0
  1  7  1  0     0  0
  2 22  2  0     0  0
  3 23  2  0     0  0
  4 22  1  0     0  0
  5  8  1  0     0  0
  5  9  1  0     0  0
  5 24  1  0     0  0
  6  7  1  0     0  0
  6  8  2  0     0  0
  7  9  2  0     0  0
  8 25  1  0     0  0
  9 23  1  0     0  0
 10 11  1  0     0  0
 10 12  1  0     0  0
 10 14  2  0     0  0
 11 15  2  0     0  0
 11 16  1  0     0  0
 12 17  2  0     0  0
 12 22  1  0     0  0
 13 18  2  0     0  0
 13 19  1  0     0  0
 13 24  1  0     0  0
 14 20  1  0     0  0
 15 18  1  0     0  0
 16 19  2  0     0  0
 17 21  1  0     0  0
 20 21  2  0     0  0
 25 28  1  0     0  0
 26 27  2  0     0  0
 26 28  1  0     0  0
M  END
> <standard_type>
pIC50

> <# Confs.>
25

> <canonical_smiles>
ClC(N=C1CCC=C)=C(C=O)N1CC2=CC=C(C3=CC=CC=C3C(O)=O)C=C2

> <standard_relation>
=

> <Publication_ID>
nan

> <predicted_activity_value>
7.3979400086720375

> <actual_activity_value>
6.657577319177793

> <Compound>
9

> <standard_units>
nM

> hash
10268325833990702466

$$$$
9_
XXILIB    08252103443D 0   0.00000     0.00000

 28 30  0     1  0            999 V2000
    5.0174    1.4738   -0.0638 Cl  0  0  0  0  0  1           0  0  0
    0.9580    0.6929    5.9408 O   0  0  0  0  0  2           0  0  0
    1.1225    2.9977   -0.8874 O   0  0  0  0  0  2           0  0  0
    0.6694   -1.2139    7.1563 O   0  0  0  0  0  2           0  0  0
    1.4526   -0.0000   -0.0000 N   0  0  0  0  0  3           0  0  0
    3.5362   -0.7636   -0.0243 N   0  0  0  0  0  3           0  0  0
    3.5476    0.6067   -0.0388 C   0  0  0  0  0  4           0  0  0
    2.2673   -1.1150   -0.0000 C   0  0  0  0  0  4           0  0  0
    2.2620    1.1225   -0.0230 C   0  0  0  0  0  4           0  0  0
   -2.0534    0.0028    5.4200 C   0  0  0  0  0  4           0  0  0
   -1.5335    0.0015    4.0456 C   0  0  0  0  0  4           0  0  0
   -1.2318   -0.0089    6.5696 C   0  0  0  0  0  4           0  0  0
   -0.5423    0.0000    1.3965 C   0  0  0  0  0  4           0  0  0
   -3.4468    0.0534    5.6299 C   0  0  0  0  0  4           0  0  0
   -1.2917   -1.2040    3.3703 C   0  0  0  0  0  4           0  0  0
   -1.2664    1.2059    3.3782 C   0  0  0  0  0  4           0  0  0
   -1.7794    0.0663    7.8589 C   0  0  0  0  0  4           0  0  0
   -0.8005   -1.2048    2.0615 C   0  0  0  0  0  4           0  0  0
   -0.7741    1.2054    2.0700 C   0  0  0  0  0  4           0  0  0
   -3.9928    0.1154    6.9155 C   0  0  0  0  0  4           0  0  0
   -3.1593    0.1281    8.0281 C   0  0  0  0  0  4           0  0  0
    0.2363   -0.1109    6.5061 C   0  0  0  0  0  4           0  0  0
    1.8272    2.4870   -0.0227 C   0  0  0  0  0  4           0  0  0
   -0.0000    0.0000    0.0000 C   0  0  0  0  0  4           0  0  0
    1.7835   -2.5224    0.0227 C   0  0  0  0  0  4           0  0  0
    2.0409   -4.8338   -0.9616 C   0  0  0  0  0  4           0  0  0
    1.5153   -5.4554   -2.0229 C   0  0  0  0  0  4           0  0  0
    2.5219   -3.4121   -0.9770 C   0  0  0  0  0  4           0  0  0
  1  7  1  0     0  0
  2 22  2  0     0  0
  3 23  2  0     0  0
  4 22  1  0     0  0
  5  8  1  0     0  0
  5  9  1  0     0  0
  5 24  1  0     0  0
  6  7  1  0     0  0
  6  8  2  0     0  0
  7  9  2  0     0  0
  8 25  1  0     0  0
  9 23  1  0     0  0
 10 11  1  0     0  0
 10 12  1  0     0  0
 10 14  2  0     0  0
 11 15  2  0     0  0
 11 16  1  0     0  0
 12 17  2  0     0  0
 12 22  1  0     0  0
 13 18  2  0     0  0
 13 19  1  0     0  0
 13 24  1  0     0  0
 14 20  1  0     0  0
 15 18  1  0     0  0
 16 19  2  0     0  0
 17 21  1  0     0  0
 20 21  2  0     0  0
 25 28  1  0     0  0
 26 27  2  0     0  0
 26 28  1  0     0  0
M  END
> <standard_type>
pIC50

> <# Confs.>
25

> <canonical_smiles>
ClC(N=C1CCC=C)=C(C=O)N1CC2=CC=C(C3=CC=CC=C3C(O)=O)C=C2

> <standard_relation>
=

> <Publication_ID>
nan

> <predicted_activity_value>
7.3979400086720375

> <actual_activity_value>
6.657577319177793

> <Compound>
9

> <standard_units>
nM

> hash
10268325833990702466

$$$$
9_
XXILIB    08252103443D 0   0.00000     0.00000

 28 30  0     1  0            999 V2000
    5.0174    1.4738   -0.0638 Cl  0  0  0  0  0  1           0  0  0
   -0.0804   -2.5593    6.1627 O   0  0  0  0  0  2           0  0  0
    1.1225    2.9977   -0.8874 O   0  0  0  0  0  2           0  0  0
    0.9405   -0.5482    6.4938 O   0  0  0  0  0  2           0  0  0
    1.4526   -0.0000   -0.0000 N   0  0  0  0  0  3           0  0  0
    3.5362   -0.7636   -0.0243 N   0  0  0  0  0  3           0  0  0
    3.5476    0.6067   -0.0388 C   0  0  0  0  0  4           0  0  0
    2.2673   -1.1150   -0.0000 C   0  0  0  0  0  4           0  0  0
    2.2620    1.1225   -0.0230 C   0  0  0  0  0  4           0  0  0
   -2.0534    0.0028    5.4200 C   0  0  0  0  0  4           0  0  0
   -1.5335    0.0015    4.0456 C   0  0  0  0  0  4           0  0  0
   -1.3851   -0.5949    6.5122 C   0  0  0  0  0  4           0  0  0
   -0.5423    0.0000    1.3965 C   0  0  0  0  0  4           0  0  0
   -3.2692    0.6612    5.6965 C   0  0  0  0  0  4           0  0  0
   -1.2917   -1.2040    3.3703 C   0  0  0  0  0  4           0  0  0
   -1.2664    1.2059    3.3782 C   0  0  0  0  0  4           0  0  0
   -1.8911   -0.5016    7.8172 C   0  0  0  0  0  4           0  0  0
   -0.8005   -1.2048    2.0615 C   0  0  0  0  0  4           0  0  0
   -0.7741    1.2054    2.0700 C   0  0  0  0  0  4           0  0  0
   -3.7798    0.7430    6.9954 C   0  0  0  0  0  4           0  0  0
   -3.0879    0.1674    8.0550 C   0  0  0  0  0  4           0  0  0
   -0.1339   -1.3586    6.3673 C   0  0  0  0  0  4           0  0  0
    1.8272    2.4870   -0.0227 C   0  0  0  0  0  4           0  0  0
   -0.0000    0.0000    0.0000 C   0  0  0  0  0  4           0  0  0
    1.7835   -2.5224    0.0227 C   0  0  0  0  0  4           0  0  0
    2.0409   -4.8338   -0.9616 C   0  0  0  0  0  4           0  0  0
    1.5153   -5.4554   -2.0229 C   0  0  0  0  0  4           0  0  0
    2.5219   -3.4121   -0.9770 C   0  0  0  0  0  4           0  0  0
  1  7  1  0     0  0
  2 22  2  0     0  0
  3 23  2  0     0  0
  4 22  1  0     0  0
  5  8  1  0     0  0
  5  9  1  0     0  0
  5 24  1  0     0  0
  6  7  1  0     0  0
  6  8  2  0     0  0
  7  9  2  0     0  0
  8 25  1  0     0  0
  9 23  1  0     0  0
 10 11  1  0     0  0
 10 12  1  0     0  0
 10 14  2  0     0  0
 11 15  2  0     0  0
 11 16  1  0     0  0
 12 17  2  0     0  0
 12 22  1  0     0  0
 13 18  2  0     0  0
 13 19  1  0     0  0
 13 24  1  0     0  0
 14 20  1  0     0  0
 15 18  1  0     0  0
 16 19  2  0     0  0
 17 21  1  0     0  0
 20 21  2  0     0  0
 25 28  1  0     0  0
 26 27  2  0     0  0
 26 28  1  0     0  0
M  END
> <standard_type>
pIC50

> <# Confs.>
25

> <canonical_smiles>
ClC(N=C1CCC=C)=C(C=O)N1CC2=CC=C(C3=CC=CC=C3C(O)=O)C=C2

> <standard_relation>
=

> <Publication_ID>
nan

> <predicted_activity_value>
7.3979400086720375

> <actual_activity_value>
6.657577319177793

> <Compound>
9

> <standard_units>
nM

> hash
10268325833990702466

$$$$
9_
XXILIB    08252103443D 0   0.00000     0.00000

 28 30  0     1  0            999 V2000
    5.0174    1.4738   -0.0638 Cl  0  0  0  0  0  1           0  0  0
   -4.6106    1.0499    3.9433 O   0  0  0  0  0  2           0  0  0
    1.1225    2.9977   -0.8874 O   0  0  0  0  0  2           0  0  0
   -5.3023   -0.9616    4.7630 O   0  0  0  0  0  2           0  0  0
    1.4526   -0.0000   -0.0000 N   0  0  0  0  0  3           0  0  0
    3.5362   -0.7636   -0.0243 N   0  0  0  0  0  3           0  0  0
    3.5476    0.6067   -0.0388 C   0  0  0  0  0  4           0  0  0
    2.2673   -1.1150   -0.0000 C   0  0  0  0  0  4           0  0  0
    2.2620    1.1225   -0.0230 C   0  0  0  0  0  4           0  0  0
   -2.0534    0.0028    5.4200 C   0  0  0  0  0  4           0  0  0
   -1.5335    0.0015    4.0456 C   0  0  0  0  0  4           0  0  0
   -3.4302    0.0159    5.7379 C   0  0  0  0  0  4           0  0  0
   -0.5423    0.0000    1.3965 C   0  0  0  0  0  4           0  0  0
   -1.1479   -0.0466    6.4996 C   0  0  0  0  0  4           0  0  0
   -1.2917   -1.2040    3.3703 C   0  0  0  0  0  4           0  0  0
   -1.2664    1.2059    3.3782 C   0  0  0  0  0  4           0  0  0
   -3.8731   -0.0567    7.0670 C   0  0  0  0  0  4           0  0  0
   -0.8005   -1.2048    2.0615 C   0  0  0  0  0  4           0  0  0
   -0.7741    1.2054    2.0700 C   0  0  0  0  0  4           0  0  0
   -1.5895   -0.1061    7.8248 C   0  0  0  0  0  4           0  0  0
   -2.9507   -0.1174    8.1072 C   0  0  0  0  0  4           0  0  0
   -4.4887    0.1168    4.7186 C   0  0  0  0  0  4           0  0  0
    1.8272    2.4870   -0.0227 C   0  0  0  0  0  4           0  0  0
   -0.0000    0.0000    0.0000 C   0  0  0  0  0  4           0  0  0
    1.7835   -2.5224    0.0227 C   0  0  0  0  0  4           0  0  0
    2.0409   -4.8338   -0.9616 C   0  0  0  0  0  4           0  0  0
    1.5153   -5.4554   -2.0229 C   0  0  0  0  0  4           0  0  0
    2.5219   -3.4121   -0.9770 C   0  0  0  0  0  4           0  0  0
  1  7  1  0     0  0
  2 22  2  0     0  0
  3 23  2  0     0  0
  4 22  1  0     0  0
  5  8  1  0     0  0
  5  9  1  0     0  0
  5 24  1  0     0  0
  6  7  1  0     0  0
  6  8  2  0     0  0
  7  9  2  0     0  0
  8 25  1  0     0  0
  9 23  1  0     0  0
 10 11  1  0     0  0
 10 12  1  0     0  0
 10 14  2  0     0  0
 11 15  2  0     0  0
 11 16  1  0     0  0
 12 17  2  0     0  0
 12 22  1  0     0  0
 13 18  2  0     0  0
 13 19  1  0     0  0
 13 24  1  0     0  0
 14 20  1  0     0  0
 15 18  1  0     0  0
 16 19  2  0     0  0
 17 21  1  0     0  0
 20 21  2  0     0  0
 25 28  1  0     0  0
 26 27  2  0     0  0
 26 28  1  0     0  0
M  END
> <standard_type>
pIC50

> <# Confs.>
25

> <canonical_smiles>
ClC(N=C1CCC=C)=C(C=O)N1CC2=CC=C(C3=CC=CC=C3C(O)=O)C=C2

> <standard_relation>
=

> <Publication_ID>
nan

> <predicted_activity_value>
7.3979400086720375

> <actual_activity_value>
6.657577319177793

> <Compound>
9

> <standard_units>
nM

> hash
10268325833990702466

$$$$
9_
XXILIB    08252103443D 0   0.00000     0.00000

 28 30  0     1  0            999 V2000
    5.0174    1.4738   -0.0638 Cl  0  0  0  0  0  1           0  0  0
   -4.2140   -2.3303    4.4726 O   0  0  0  0  0  2           0  0  0
    1.1225    2.9977   -0.8874 O   0  0  0  0  0  2           0  0  0
   -5.0941   -0.2301    4.3656 O   0  0  0  0  0  2           0  0  0
    1.4526   -0.0000   -0.0000 N   0  0  0  0  0  3           0  0  0
    3.5362   -0.7636   -0.0243 N   0  0  0  0  0  3           0  0  0
    3.5476    0.6067   -0.0388 C   0  0  0  0  0  4           0  0  0
    2.2673   -1.1150   -0.0000 C   0  0  0  0  0  4           0  0  0
    2.2620    1.1225   -0.0230 C   0  0  0  0  0  4           0  0  0
   -2.0534    0.0028    5.4200 C   0  0  0  0  0  4           0  0  0
   -1.5335    0.0015    4.0456 C   0  0  0  0  0  4           0  0  0
   -3.2890   -0.5734    5.7919 C   0  0  0  0  0  4           0  0  0
   -0.5423    0.0000    1.3965 C   0  0  0  0  0  4           0  0  0
   -1.2783    0.5746    6.4497 C   0  0  0  0  0  4           0  0  0
   -1.2917   -1.2040    3.3703 C   0  0  0  0  0  4           0  0  0
   -1.2664    1.2059    3.3782 C   0  0  0  0  0  4           0  0  0
   -3.7043   -0.6081    7.1314 C   0  0  0  0  0  4           0  0  0
   -0.8005   -1.2048    2.0615 C   0  0  0  0  0  4           0  0  0
   -0.7741    1.2054    2.0700 C   0  0  0  0  0  4           0  0  0
   -1.6985    0.5512    7.7829 C   0  0  0  0  0  4           0  0  0
   -2.9072   -0.0452    8.1236 C   0  0  0  0  0  4           0  0  0
   -4.2258   -1.1614    4.8192 C   0  0  0  0  0  4           0  0  0
    1.8272    2.4870   -0.0227 C   0  0  0  0  0  4           0  0  0
   -0.0000    0.0000    0.0000 C   0  0  0  0  0  4           0  0  0
    1.7835   -2.5224    0.0227 C   0  0  0  0  0  4           0  0  0
    2.0409   -4.8338   -0.9616 C   0  0  0  0  0  4           0  0  0
    1.5153   -5.4554   -2.0229 C   0  0  0  0  0  4           0  0  0
    2.5219   -3.4121   -0.9770 C   0  0  0  0  0  4           0  0  0
  1  7  1  0     0  0
  2 22  2  0     0  0
  3 23  2  0     0  0
  4 22  1  0     0  0
  5  8  1  0     0  0
  5  9  1  0     0  0
  5 24  1  0     0  0
  6  7  1  0     0  0
  6  8  2  0     0  0
  7  9  2  0     0  0
  8 25  1  0     0  0
  9 23  1  0     0  0
 10 11  1  0     0  0
 10 12  1  0     0  0
 10 14  2  0     0  0
 11 15  2  0     0  0
 11 16  1  0     0  0
 12 17  2  0     0  0
 12 22  1  0     0  0
 13 18  2  0     0  0
 13 19  1  0     0  0
 13 24  1  0     0  0
 14 20  1  0     0  0
 15 18  1  0     0  0
 16 19  2  0     0  0
 17 21  1  0     0  0
 20 21  2  0     0  0
 25 28  1  0     0  0
 26 27  2  0     0  0
 26 28  1  0     0  0
M  END
> <standard_type>
pIC50

> <# Confs.>
25

> <canonical_smiles>
ClC(N=C1CCC=C)=C(C=O)N1CC2=CC=C(C3=CC=CC=C3C(O)=O)C=C2

> <standard_relation>
=

> <Publication_ID>
nan

> <predicted_activity_value>
7.3979400086720375

> <actual_activity_value>
6.657577319177793

> <Compound>
9

> <standard_units>
nM

> hash
10268325833990702466

$$$$
9_
XXILIB    08252103443D 0   0.00000     0.00000

 28 30  0     1  0            999 V2000
    5.0174   -1.4738    0.0638 Cl  0  0  0  0  0  1           0  0  0
   -4.7359   -0.5476    3.8975 O   0  0  0  0  0  2           0  0  0
    1.1469   -3.0051   -0.8571 O   0  0  0  0  0  2           0  0  0
   -4.4416   -2.4679    5.0900 O   0  0  0  0  0  2           0  0  0
    1.4526    0.0000   -0.0000 N   0  0  0  0  0  3           0  0  0
    3.5362    0.7636    0.0243 N   0  0  0  0  0  3           0  0  0
    3.5476   -0.6067    0.0388 C   0  0  0  0  0  4           0  0  0
    2.2673    1.1150    0.0000 C   0  0  0  0  0  4           0  0  0
    2.2620   -1.1225    0.0230 C   0  0  0  0  0  4           0  0  0
   -2.0534    0.0028    5.4200 C   0  0  0  0  0  4           0  0  0
   -1.5335    0.0015    4.0456 C   0  0  0  0  0  4           0  0  0
   -3.2890   -0.5734    5.7919 C   0  0  0  0  0  4           0  0  0
   -0.5423    0.0000    1.3965 C   0  0  0  0  0  4           0  0  0
   -1.2783    0.5746    6.4497 C   0  0  0  0  0  4           0  0  0
   -1.2917   -1.2040    3.3703 C   0  0  0  0  0  4           0  0  0
   -1.2664    1.2059    3.3782 C   0  0  0  0  0  4           0  0  0
   -3.7043   -0.6081    7.1314 C   0  0  0  0  0  4           0  0  0
   -0.8005   -1.2048    2.0615 C   0  0  0  0  0  4           0  0  0
   -0.7741    1.2054    2.0700 C   0  0  0  0  0  4           0  0  0
   -1.6985    0.5512    7.7829 C   0  0  0  0  0  4           0  0  0
   -2.9072   -0.0452    8.1236 C   0  0  0  0  0  4           0  0  0
   -4.2258   -1.1614    4.8192 C   0  0  0  0  0  4           0  0  0
    1.8272   -2.4870    0.0227 C   0  0  0  0  0  4           0  0  0
   -0.0000    0.0000    0.0000 C   0  0  0  0  0  4           0  0  0
    1.7835    2.5224   -0.0227 C   0  0  0  0  0  4           0  0  0
    2.0712    4.8117   -1.0494 C   0  0  0  0  0  4           0  0  0
    2.8429    5.8668   -0.7658 C   0  0  0  0  0  4           0  0  0
    2.5519    3.3902   -1.0191 C   0  0  0  0  0  4           0  0  0
  1  7  1  0     0  0
  2 22  2  0     0  0
  3 23  2  0     0  0
  4 22  1  0     0  0
  5  8  1  0     0  0
  5  9  1  0     0  0
  5 24  1  0     0  0
  6  7  1  0     0  0
  6  8  2  0     0  0
  7  9  2  0     0  0
  8 25  1  0     0  0
  9 23  1  0     0  0
 10 11  1  0     0  0
 10 12  1  0     0  0
 10 14  2  0     0  0
 11 15  2  0     0  0
 11 16  1  0     0  0
 12 17  2  0     0  0
 12 22  1  0     0  0
 13 18  2  0     0  0
 13 19  1  0     0  0
 13 24  1  0     0  0
 14 20  1  0     0  0
 15 18  1  0     0  0
 16 19  2  0     0  0
 17 21  1  0     0  0
 20 21  2  0     0  0
 25 28  1  0     0  0
 26 27  2  0     0  0
 26 28  1  0     0  0
M  END
> <standard_type>
pIC50

> <# Confs.>
25

> <canonical_smiles>
ClC(N=C1CCC=C)=C(C=O)N1CC2=CC=C(C3=CC=CC=C3C(O)=O)C=C2

> <standard_relation>
=

> <Publication_ID>
nan

> <predicted_activity_value>
7.3979400086720375

> <actual_activity_value>
6.657577319177793

> <Compound>
9

> <standard_units>
nM

> hash
10268325833990702466

$$$$
9_
XXILIB    08252103443D 0   0.00000     0.00000

 28 30  0     1  0            999 V2000
    5.0174   -1.4738    0.0638 Cl  0  0  0  0  0  1           0  0  0
    0.9580    0.6929    5.9408 O   0  0  0  0  0  2           0  0  0
    1.1469   -3.0051   -0.8571 O   0  0  0  0  0  2           0  0  0
    0.6694   -1.2139    7.1563 O   0  0  0  0  0  2           0  0  0
    1.4526    0.0000   -0.0000 N   0  0  0  0  0  3           0  0  0
    3.5362    0.7636    0.0243 N   0  0  0  0  0  3           0  0  0
    3.5476   -0.6067    0.0388 C   0  0  0  0  0  4           0  0  0
    2.2673    1.1150    0.0000 C   0  0  0  0  0  4           0  0  0
    2.2620   -1.1225    0.0230 C   0  0  0  0  0  4           0  0  0
   -2.0534    0.0028    5.4200 C   0  0  0  0  0  4           0  0  0
   -1.5335    0.0015    4.0456 C   0  0  0  0  0  4           0  0  0
   -1.2318   -0.0089    6.5696 C   0  0  0  0  0  4           0  0  0
   -0.5423    0.0000    1.3965 C   0  0  0  0  0  4           0  0  0
   -3.4468    0.0534    5.6299 C   0  0  0  0  0  4           0  0  0
   -1.2917   -1.2040    3.3703 C   0  0  0  0  0  4           0  0  0
   -1.2664    1.2059    3.3782 C   0  0  0  0  0  4           0  0  0
   -1.7794    0.0663    7.8589 C   0  0  0  0  0  4           0  0  0
   -0.8005   -1.2048    2.0615 C   0  0  0  0  0  4           0  0  0
   -0.7741    1.2054    2.0700 C   0  0  0  0  0  4           0  0  0
   -3.9928    0.1154    6.9155 C   0  0  0  0  0  4           0  0  0
   -3.1593    0.1281    8.0281 C   0  0  0  0  0  4           0  0  0
    0.2363   -0.1109    6.5061 C   0  0  0  0  0  4           0  0  0
    1.8272   -2.4870    0.0227 C   0  0  0  0  0  4           0  0  0
   -0.0000    0.0000    0.0000 C   0  0  0  0  0  4           0  0  0
    1.7835    2.5224   -0.0227 C   0  0  0  0  0  4           0  0  0
    2.0712    4.8117   -1.0494 C   0  0  0  0  0  4           0  0  0
    1.5779    5.4097   -2.1395 C   0  0  0  0  0  4           0  0  0
    2.5519    3.3902   -1.0191 C   0  0  0  0  0  4           0  0  0
  1  7  1  0     0  0
  2 22  2  0     0  0
  3 23  2  0     0  0
  4 22  1  0     0  0
  5  8  1  0     0  0
  5  9  1  0     0  0
  5 24  1  0     0  0
  6  7  1  0     0  0
  6  8  2  0     0  0
  7  9  2  0     0  0
  8 25  1  0     0  0
  9 23  1  0     0  0
 10 11  1  0     0  0
 10 12  1  0     0  0
 10 14  2  0     0  0
 11 15  2  0     0  0
 11 16  1  0     0  0
 12 17  2  0     0  0
 12 22  1  0     0  0
 13 18  2  0     0  0
 13 19  1  0     0  0
 13 24  1  0     0  0
 14 20  1  0     0  0
 15 18  1  0     0  0
 16 19  2  0     0  0
 17 21  1  0     0  0
 20 21  2  0     0  0
 25 28  1  0     0  0
 26 27  2  0     0  0
 26 28  1  0     0  0
M  END
> <standard_type>
pIC50

> <# Confs.>
25

> <canonical_smiles>
ClC(N=C1CCC=C)=C(C=O)N1CC2=CC=C(C3=CC=CC=C3C(O)=O)C=C2

> <standard_relation>
=

> <Publication_ID>
nan

> <predicted_activity_value>
7.3979400086720375

> <actual_activity_value>
6.657577319177793

> <Compound>
9

> <standard_units>
nM

> hash
10268325833990702466

$$$$
9_
XXILIB    08252103443D 0   0.00000     0.00000

 28 30  0     1  0            999 V2000
    5.0174    1.0873    0.9971 Cl  0  0  0  0  0  1           0  0  0
    0.6493    1.2873    5.9859 O   0  0  0  0  0  2           0  0  0
    1.1225    2.7472    1.4922 O   0  0  0  0  0  2           0  0  0
   -0.8145    2.9558    6.5058 O   0  0  0  0  0  2           0  0  0
    1.4526    0.0000    0.0000 N   0  0  0  0  0  3           0  0  0
    3.5362   -0.5228   -0.5572 N   0  0  0  0  0  3           0  0  0
    3.5476    0.4564    0.4015 C   0  0  0  0  0  4           0  0  0
    2.2673   -0.7884   -0.7884 C   0  0  0  0  0  4           0  0  0
    2.2620    0.8100    0.7775 C   0  0  0  0  0  4           0  0  0
   -2.1277   -0.0358    5.3911 C   0  0  0  0  0  4           0  0  0
   -1.5882   -0.0257    4.0244 C   0  0  0  0  0  4           0  0  0
   -1.6367    0.7810    6.4344 C   0  0  0  0  0  4           0  0  0
   -0.5423   -0.0000    1.3965 C   0  0  0  0  0  4           0  0  0
   -3.2200   -0.8741    5.6949 C   0  0  0  0  0  4           0  0  0
   -2.1107    0.8401    3.0523 C   0  0  0  0  0  4           0  0  0
   -0.5390   -0.8827    3.6607 C   0  0  0  0  0  4           0  0  0
   -2.2361    0.7841    7.7027 C   0  0  0  0  0  4           0  0  0
   -1.5947    0.8519    1.7531 C   0  0  0  0  0  4           0  0  0
   -0.0237   -0.8720    2.3614 C   0  0  0  0  0  4           0  0  0
   -3.8091   -0.8802    6.9628 C   0  0  0  0  0  4           0  0  0
   -3.3212   -0.0472    7.9633 C   0  0  0  0  0  4           0  0  0
   -0.4713    1.6683    6.2786 C   0  0  0  0  0  4           0  0  0
    1.8272    1.7746    1.7425 C   0  0  0  0  0  4           0  0  0
    0.0000    0.0000    0.0000 C   0  0  0  0  0  4           0  0  0
    1.7835   -1.7997   -1.7675 C   0  0  0  0  0  4           0  0  0
    1.1265   -4.2120   -2.1237 C   0  0  0  0  0  4           0  0  0
   -0.0154   -4.8943   -1.9834 C   0  0  0  0  0  4           0  0  0
    1.6142   -3.1849   -1.1440 C   0  0  0  0  0  4           0  0  0
  1  7  1  0     0  0
  2 22  2  0     0  0
  3 23  2  0     0  0
  4 22  1  0     0  0
  5  8  1  0     0  0
  5  9  1  0     0  0
  5 24  1  0     0  0
  6  7  1  0     0  0
  6  8  2  0     0  0
  7  9  2  0     0  0
  8 25  1  0     0  0
  9 23  1  0     0  0
 10 11  1  0     0  0
 10 12  1  0     0  0
 10 14  2  0     0  0
 11 15  2  0     0  0
 11 16  1  0     0  0
 12 17  2  0     0  0
 12 22  1  0     0  0
 13 18  2  0     0  0
 13 19  1  0     0  0
 13 24  1  0     0  0
 14 20  1  0     0  0
 15 18  1  0     0  0
 16 19  2  0     0  0
 17 21  1  0     0  0
 20 21  2  0     0  0
 25 28  1  0     0  0
 26 27  2  0     0  0
 26 28  1  0     0  0
M  END
> <standard_type>
pIC50

> <# Confs.>
25

> <canonical_smiles>
ClC(N=C1CCC=C)=C(C=O)N1CC2=CC=C(C3=CC=CC=C3C(O)=O)C=C2

> <standard_relation>
=

> <Publication_ID>
nan

> <predicted_activity_value>
7.3979400086720375

> <actual_activity_value>
6.657577319177793

> <Compound>
9

> <standard_units>
nM

> hash
10268325833990702466

$$$$
9_
XXILIB    08252103443D 0   0.00000     0.00000

 28 30  0     1  0            999 V2000
    5.0174   -1.4738    0.0638 Cl  0  0  0  0  0  1           0  0  0
   -0.0804   -2.5593    6.1627 O   0  0  0  0  0  2           0  0  0
    1.1469   -3.0051   -0.8571 O   0  0  0  0  0  2           0  0  0
    0.9405   -0.5482    6.4938 O   0  0  0  0  0  2           0  0  0
    1.4526    0.0000   -0.0000 N   0  0  0  0  0  3           0  0  0
    3.5362    0.7636    0.0243 N   0  0  0  0  0  3           0  0  0
    3.5476   -0.6067    0.0388 C   0  0  0  0  0  4           0  0  0
    2.2673    1.1150    0.0000 C   0  0  0  0  0  4           0  0  0
    2.2620   -1.1225    0.0230 C   0  0  0  0  0  4           0  0  0
   -2.0534    0.0028    5.4200 C   0  0  0  0  0  4           0  0  0
   -1.5335    0.0015    4.0456 C   0  0  0  0  0  4           0  0  0
   -1.3851   -0.5949    6.5122 C   0  0  0  0  0  4           0  0  0
   -0.5423    0.0000    1.3965 C   0  0  0  0  0  4           0  0  0
   -3.2692    0.6612    5.6965 C   0  0  0  0  0  4           0  0  0
   -1.2917   -1.2040    3.3703 C   0  0  0  0  0  4           0  0  0
   -1.2664    1.2059    3.3782 C   0  0  0  0  0  4           0  0  0
   -1.8911   -0.5016    7.8172 C   0  0  0  0  0  4           0  0  0
   -0.8005   -1.2048    2.0615 C   0  0  0  0  0  4           0  0  0
   -0.7741    1.2054    2.0700 C   0  0  0  0  0  4           0  0  0
   -3.7798    0.7430    6.9954 C   0  0  0  0  0  4           0  0  0
   -3.0879    0.1674    8.0550 C   0  0  0  0  0  4           0  0  0
   -0.1339   -1.3586    6.3673 C   0  0  0  0  0  4           0  0  0
    1.8272   -2.4870    0.0227 C   0  0  0  0  0  4           0  0  0
   -0.0000    0.0000    0.0000 C   0  0  0  0  0  4           0  0  0
    1.7835    2.5224   -0.0227 C   0  0  0  0  0  4           0  0  0
    2.0712    4.8117   -1.0494 C   0  0  0  0  0  4           0  0  0
    2.8429    5.8668   -0.7658 C   0  0  0  0  0  4           0  0  0
    2.5519    3.3902   -1.0191 C   0  0  0  0  0  4           0  0  0
  1  7  1  0     0  0
  2 22  2  0     0  0
  3 23  2  0     0  0
  4 22  1  0     0  0
  5  8  1  0     0  0
  5  9  1  0     0  0
  5 24  1  0     0  0
  6  7  1  0     0  0
  6  8  2  0     0  0
  7  9  2  0     0  0
  8 25  1  0     0  0
  9 23  1  0     0  0
 10 11  1  0     0  0
 10 12  1  0     0  0
 10 14  2  0     0  0
 11 15  2  0     0  0
 11 16  1  0     0  0
 12 17  2  0     0  0
 12 22  1  0     0  0
 13 18  2  0     0  0
 13 19  1  0     0  0
 13 24  1  0     0  0
 14 20  1  0     0  0
 15 18  1  0     0  0
 16 19  2  0     0  0
 17 21  1  0     0  0
 20 21  2  0     0  0
 25 28  1  0     0  0
 26 27  2  0     0  0
 26 28  1  0     0  0
M  END
> <standard_type>
pIC50

> <# Confs.>
25

> <canonical_smiles>
ClC(N=C1CCC=C)=C(C=O)N1CC2=CC=C(C3=CC=CC=C3C(O)=O)C=C2

> <standard_relation>
=

> <Publication_ID>
nan

> <predicted_activity_value>
7.3979400086720375

> <actual_activity_value>
6.657577319177793

> <Compound>
9

> <standard_units>
nM

> hash
10268325833990702466

$$$$
9_
XXILIB    08252103443D 0   0.00000     0.00000

 28 30  0     1  0            999 V2000
    5.0174    1.4738   -0.0638 Cl  0  0  0  0  0  1           0  0  0
   -0.0804   -2.5593    6.1627 O   0  0  0  0  0  2           0  0  0
    1.1225    2.9977   -0.8874 O   0  0  0  0  0  2           0  0  0
    0.9405   -0.5482    6.4938 O   0  0  0  0  0  2           0  0  0
    1.4526   -0.0000   -0.0000 N   0  0  0  0  0  3           0  0  0
    3.5362   -0.7636   -0.0243 N   0  0  0  0  0  3           0  0  0
    3.5476    0.6067   -0.0388 C   0  0  0  0  0  4           0  0  0
    2.2673   -1.1150   -0.0000 C   0  0  0  0  0  4           0  0  0
    2.2620    1.1225   -0.0230 C   0  0  0  0  0  4           0  0  0
   -2.0534    0.0028    5.4200 C   0  0  0  0  0  4           0  0  0
   -1.5335    0.0015    4.0456 C   0  0  0  0  0  4           0  0  0
   -1.3851   -0.5949    6.5122 C   0  0  0  0  0  4           0  0  0
   -0.5423    0.0000    1.3965 C   0  0  0  0  0  4           0  0  0
   -3.2692    0.6612    5.6965 C   0  0  0  0  0  4           0  0  0
   -1.2917   -1.2040    3.3703 C   0  0  0  0  0  4           0  0  0
   -1.2664    1.2059    3.3782 C   0  0  0  0  0  4           0  0  0
   -1.8911   -0.5016    7.8172 C   0  0  0  0  0  4           0  0  0
   -0.8005   -1.2048    2.0615 C   0  0  0  0  0  4           0  0  0
   -0.7741    1.2054    2.0700 C   0  0  0  0  0  4           0  0  0
   -3.7798    0.7430    6.9954 C   0  0  0  0  0  4           0  0  0
   -3.0879    0.1674    8.0550 C   0  0  0  0  0  4           0  0  0
   -0.1339   -1.3586    6.3673 C   0  0  0  0  0  4           0  0  0
    1.8272    2.4870   -0.0227 C   0  0  0  0  0  4           0  0  0
   -0.0000    0.0000    0.0000 C   0  0  0  0  0  4           0  0  0
    1.7835   -2.5224    0.0227 C   0  0  0  0  0  4           0  0  0
    2.3733   -2.9462   -2.3960 C   0  0  0  0  0  4           0  0  0
    1.8275   -3.6826   -3.3701 C   0  0  0  0  0  4           0  0  0
    2.5219   -3.4121   -0.9770 C   0  0  0  0  0  4           0  0  0
  1  7  1  0     0  0
  2 22  2  0     0  0
  3 23  2  0     0  0
  4 22  1  0     0  0
  5  8  1  0     0  0
  5  9  1  0     0  0
  5 24  1  0     0  0
  6  7  1  0     0  0
  6  8  2  0     0  0
  7  9  2  0     0  0
  8 25  1  0     0  0
  9 23  1  0     0  0
 10 11  1  0     0  0
 10 12  1  0     0  0
 10 14  2  0     0  0
 11 15  2  0     0  0
 11 16  1  0     0  0
 12 17  2  0     0  0
 12 22  1  0     0  0
 13 18  2  0     0  0
 13 19  1  0     0  0
 13 24  1  0     0  0
 14 20  1  0     0  0
 15 18  1  0     0  0
 16 19  2  0     0  0
 17 21  1  0     0  0
 20 21  2  0     0  0
 25 28  1  0     0  0
 26 27  2  0     0  0
 26 28  1  0     0  0
M  END
> <standard_type>
pIC50

> <# Confs.>
25

> <canonical_smiles>
ClC(N=C1CCC=C)=C(C=O)N1CC2=CC=C(C3=CC=CC=C3C(O)=O)C=C2

> <standard_relation>
=

> <Publication_ID>
nan

> <predicted_activity_value>
7.3979400086720375

> <actual_activity_value>
6.657577319177793

> <Compound>
9

> <standard_units>
nM

> hash
10268325833990702466

$$$$
9_
XXILIB    08252103443D 0   0.00000     0.00000

 28 30  0     1  0            999 V2000
    5.0174    1.4738   -0.0638 Cl  0  0  0  0  0  1           0  0  0
    0.9580    0.6929    5.9408 O   0  0  0  0  0  2           0  0  0
    1.1225    2.9977   -0.8874 O   0  0  0  0  0  2           0  0  0
    0.6694   -1.2139    7.1563 O   0  0  0  0  0  2           0  0  0
    1.4526   -0.0000   -0.0000 N   0  0  0  0  0  3           0  0  0
    3.5362   -0.7636   -0.0243 N   0  0  0  0  0  3           0  0  0
    3.5476    0.6067   -0.0388 C   0  0  0  0  0  4           0  0  0
    2.2673   -1.1150   -0.0000 C   0  0  0  0  0  4           0  0  0
    2.2620    1.1225   -0.0230 C   0  0  0  0  0  4           0  0  0
   -2.0534    0.0028    5.4200 C   0  0  0  0  0  4           0  0  0
   -1.5335    0.0015    4.0456 C   0  0  0  0  0  4           0  0  0
   -1.2318   -0.0089    6.5696 C   0  0  0  0  0  4           0  0  0
   -0.5423    0.0000    1.3965 C   0  0  0  0  0  4           0  0  0
   -3.4468    0.0534    5.6299 C   0  0  0  0  0  4           0  0  0
   -1.2917   -1.2040    3.3703 C   0  0  0  0  0  4           0  0  0
   -1.2664    1.2059    3.3782 C   0  0  0  0  0  4           0  0  0
   -1.7794    0.0663    7.8589 C   0  0  0  0  0  4           0  0  0
   -0.8005   -1.2048    2.0615 C   0  0  0  0  0  4           0  0  0
   -0.7741    1.2054    2.0700 C   0  0  0  0  0  4           0  0  0
   -3.9928    0.1154    6.9155 C   0  0  0  0  0  4           0  0  0
   -3.1593    0.1281    8.0281 C   0  0  0  0  0  4           0  0  0
    0.2363   -0.1109    6.5061 C   0  0  0  0  0  4           0  0  0
    1.8272    2.4870   -0.0227 C   0  0  0  0  0  4           0  0  0
   -0.0000    0.0000    0.0000 C   0  0  0  0  0  4           0  0  0
    1.7835   -2.5224    0.0227 C   0  0  0  0  0  4           0  0  0
    2.3733   -2.9462   -2.3960 C   0  0  0  0  0  4           0  0  0
    1.8275   -3.6826   -3.3701 C   0  0  0  0  0  4           0  0  0
    2.5219   -3.4121   -0.9770 C   0  0  0  0  0  4           0  0  0
  1  7  1  0     0  0
  2 22  2  0     0  0
  3 23  2  0     0  0
  4 22  1  0     0  0
  5  8  1  0     0  0
  5  9  1  0     0  0
  5 24  1  0     0  0
  6  7  1  0     0  0
  6  8  2  0     0  0
  7  9  2  0     0  0
  8 25  1  0     0  0
  9 23  1  0     0  0
 10 11  1  0     0  0
 10 12  1  0     0  0
 10 14  2  0     0  0
 11 15  2  0     0  0
 11 16  1  0     0  0
 12 17  2  0     0  0
 12 22  1  0     0  0
 13 18  2  0     0  0
 13 19  1  0     0  0
 13 24  1  0     0  0
 14 20  1  0     0  0
 15 18  1  0     0  0
 16 19  2  0     0  0
 17 21  1  0     0  0
 20 21  2  0     0  0
 25 28  1  0     0  0
 26 27  2  0     0  0
 26 28  1  0     0  0
M  END
> <standard_type>
pIC50

> <# Confs.>
25

> <canonical_smiles>
ClC(N=C1CCC=C)=C(C=O)N1CC2=CC=C(C3=CC=CC=C3C(O)=O)C=C2

> <standard_relation>
=

> <Publication_ID>
nan

> <predicted_activity_value>
7.3979400086720375

> <actual_activity_value>
6.657577319177793

> <Compound>
9

> <standard_units>
nM

> hash
10268325833990702466

$$$$
9_
XXILIB    08252103443D 0   0.00000     0.00000

 28 30  0     1  0            999 V2000
    5.0174    1.4738   -0.0638 Cl  0  0  0  0  0  1           0  0  0
   -4.2140   -2.3303    4.4726 O   0  0  0  0  0  2           0  0  0
    1.1225    2.9977   -0.8874 O   0  0  0  0  0  2           0  0  0
   -5.0941   -0.2301    4.3656 O   0  0  0  0  0  2           0  0  0
    1.4526   -0.0000   -0.0000 N   0  0  0  0  0  3           0  0  0
    3.5362   -0.7636   -0.0243 N   0  0  0  0  0  3           0  0  0
    3.5476    0.6067   -0.0388 C   0  0  0  0  0  4           0  0  0
    2.2673   -1.1150   -0.0000 C   0  0  0  0  0  4           0  0  0
    2.2620    1.1225   -0.0230 C   0  0  0  0  0  4           0  0  0
   -2.0534    0.0028    5.4200 C   0  0  0  0  0  4           0  0  0
   -1.5335    0.0015    4.0456 C   0  0  0  0  0  4           0  0  0
   -3.2890   -0.5734    5.7919 C   0  0  0  0  0  4           0  0  0
   -0.5423    0.0000    1.3965 C   0  0  0  0  0  4           0  0  0
   -1.2783    0.5746    6.4497 C   0  0  0  0  0  4           0  0  0
   -1.2917   -1.2040    3.3703 C   0  0  0  0  0  4           0  0  0
   -1.2664    1.2059    3.3782 C   0  0  0  0  0  4           0  0  0
   -3.7043   -0.6081    7.1314 C   0  0  0  0  0  4           0  0  0
   -0.8005   -1.2048    2.0615 C   0  0  0  0  0  4           0  0  0
   -0.7741    1.2054    2.0700 C   0  0  0  0  0  4           0  0  0
   -1.6985    0.5512    7.7829 C   0  0  0  0  0  4           0  0  0
   -2.9072   -0.0452    8.1236 C   0  0  0  0  0  4           0  0  0
   -4.2258   -1.1614    4.8192 C   0  0  0  0  0  4           0  0  0
    1.8272    2.4870   -0.0227 C   0  0  0  0  0  4           0  0  0
   -0.0000    0.0000    0.0000 C   0  0  0  0  0  4           0  0  0
    1.7835   -2.5224    0.0227 C   0  0  0  0  0  4           0  0  0
    2.3733   -2.9462   -2.3960 C   0  0  0  0  0  4           0  0  0
    1.8275   -3.6826   -3.3701 C   0  0  0  0  0  4           0  0  0
    2.5219   -3.4121   -0.9770 C   0  0  0  0  0  4           0  0  0
  1  7  1  0     0  0
  2 22  2  0     0  0
  3 23  2  0     0  0
  4 22  1  0     0  0
  5  8  1  0     0  0
  5  9  1  0     0  0
  5 24  1  0     0  0
  6  7  1  0     0  0
  6  8  2  0     0  0
  7  9  2  0     0  0
  8 25  1  0     0  0
  9 23  1  0     0  0
 10 11  1  0     0  0
 10 12  1  0     0  0
 10 14  2  0     0  0
 11 15  2  0     0  0
 11 16  1  0     0  0
 12 17  2  0     0  0
 12 22  1  0     0  0
 13 18  2  0     0  0
 13 19  1  0     0  0
 13 24  1  0     0  0
 14 20  1  0     0  0
 15 18  1  0     0  0
 16 19  2  0     0  0
 17 21  1  0     0  0
 20 21  2  0     0  0
 25 28  1  0     0  0
 26 27  2  0     0  0
 26 28  1  0     0  0
M  END
> <standard_type>
pIC50

> <# Confs.>
25

> <canonical_smiles>
ClC(N=C1CCC=C)=C(C=O)N1CC2=CC=C(C3=CC=CC=C3C(O)=O)C=C2

> <standard_relation>
=

> <Publication_ID>
nan

> <predicted_activity_value>
7.3979400086720375

> <actual_activity_value>
6.657577319177793

> <Compound>
9

> <standard_units>
nM

> hash
10268325833990702466

$$$$
9_
XXILIB    08252103443D 0   0.00000     0.00000

 28 30  0     1  0            999 V2000
    5.0174    1.4738   -0.0638 Cl  0  0  0  0  0  1           0  0  0
   -4.6561   -0.6884    3.8185 O   0  0  0  0  0  2           0  0  0
    1.1225    2.9977   -0.8874 O   0  0  0  0  0  2           0  0  0
   -5.2430    1.2206    4.9174 O   0  0  0  0  0  2           0  0  0
    1.4526   -0.0000   -0.0000 N   0  0  0  0  0  3           0  0  0
    3.5362   -0.7636   -0.0243 N   0  0  0  0  0  3           0  0  0
    3.5476    0.6067   -0.0388 C   0  0  0  0  0  4           0  0  0
    2.2673   -1.1150   -0.0000 C   0  0  0  0  0  4           0  0  0
    2.2620    1.1225   -0.0230 C   0  0  0  0  0  4           0  0  0
   -2.0534    0.0028    5.4200 C   0  0  0  0  0  4           0  0  0
   -1.5335    0.0015    4.0456 C   0  0  0  0  0  4           0  0  0
   -3.4302    0.0159    5.7379 C   0  0  0  0  0  4           0  0  0
   -0.5423    0.0000    1.3965 C   0  0  0  0  0  4           0  0  0
   -1.1479   -0.0466    6.4996 C   0  0  0  0  0  4           0  0  0
   -1.2917   -1.2040    3.3703 C   0  0  0  0  0  4           0  0  0
   -1.2664    1.2059    3.3782 C   0  0  0  0  0  4           0  0  0
   -3.8731   -0.0567    7.0670 C   0  0  0  0  0  4           0  0  0
   -0.8005   -1.2048    2.0615 C   0  0  0  0  0  4           0  0  0
   -0.7741    1.2054    2.0700 C   0  0  0  0  0  4           0  0  0
   -1.5895   -0.1061    7.8248 C   0  0  0  0  0  4           0  0  0
   -2.9507   -0.1174    8.1072 C   0  0  0  0  0  4           0  0  0
   -4.4887    0.1168    4.7186 C   0  0  0  0  0  4           0  0  0
    1.8272    2.4870   -0.0227 C   0  0  0  0  0  4           0  0  0
   -0.0000    0.0000    0.0000 C   0  0  0  0  0  4           0  0  0
    1.7835   -2.5224    0.0227 C   0  0  0  0  0  4           0  0  0
    2.0409   -4.8338   -0.9616 C   0  0  0  0  0  4           0  0  0
    2.8212   -5.8826   -0.6782 C   0  0  0  0  0  4           0  0  0
    2.5219   -3.4121   -0.9770 C   0  0  0  0  0  4           0  0  0
  1  7  1  0     0  0
  2 22  2  0     0  0
  3 23  2  0     0  0
  4 22  1  0     0  0
  5  8  1  0     0  0
  5  9  1  0     0  0
  5 24  1  0     0  0
  6  7  1  0     0  0
  6  8  2  0     0  0
  7  9  2  0     0  0
  8 25  1  0     0  0
  9 23  1  0     0  0
 10 11  1  0     0  0
 10 12  1  0     0  0
 10 14  2  0     0  0
 11 15  2  0     0  0
 11 16  1  0     0  0
 12 17  2  0     0  0
 12 22  1  0     0  0
 13 18  2  0     0  0
 13 19  1  0     0  0
 13 24  1  0     0  0
 14 20  1  0     0  0
 15 18  1  0     0  0
 16 19  2  0     0  0
 17 21  1  0     0  0
 20 21  2  0     0  0
 25 28  1  0     0  0
 26 27  2  0     0  0
 26 28  1  0     0  0
M  END
> <standard_type>
pIC50

> <# Confs.>
25

> <canonical_smiles>
ClC(N=C1CCC=C)=C(C=O)N1CC2=CC=C(C3=CC=CC=C3C(O)=O)C=C2

> <standard_relation>
=

> <Publication_ID>
nan

> <predicted_activity_value>
7.3979400086720375

> <actual_activity_value>
6.657577319177793

> <Compound>
9

> <standard_units>
nM

> hash
10268325833990702466

$$$$
9_
XXILIB    08252103443D 0   0.00000     0.00000

 28 30  0     1  0            999 V2000
    5.0174   -1.4738    0.0638 Cl  0  0  0  0  0  1           0  0  0
    0.8402   -1.0452    6.0072 O   0  0  0  0  0  2           0  0  0
    1.1469   -3.0051   -0.8571 O   0  0  0  0  0  2           0  0  0
    0.8175    0.9682    7.0761 O   0  0  0  0  0  2           0  0  0
    1.4526   -0.0000    0.0000 N   0  0  0  0  0  3           0  0  0
    3.5362    0.7636    0.0243 N   0  0  0  0  0  3           0  0  0
    3.5476   -0.6067    0.0388 C   0  0  0  0  0  4           0  0  0
    2.2673    1.1150    0.0000 C   0  0  0  0  0  4           0  0  0
    2.2620   -1.1225    0.0230 C   0  0  0  0  0  4           0  0  0
   -2.0534    0.0028    5.4200 C   0  0  0  0  0  4           0  0  0
   -1.5335    0.0015    4.0456 C   0  0  0  0  0  4           0  0  0
   -1.2318   -0.0089    6.5696 C   0  0  0  0  0  4           0  0  0
   -0.5423    0.0000    1.3965 C   0  0  0  0  0  4           0  0  0
   -3.4468    0.0534    5.6299 C   0  0  0  0  0  4           0  0  0
   -1.2917   -1.2040    3.3703 C   0  0  0  0  0  4           0  0  0
   -1.2664    1.2059    3.3782 C   0  0  0  0  0  4           0  0  0
   -1.7794    0.0663    7.8589 C   0  0  0  0  0  4           0  0  0
   -0.8005   -1.2048    2.0615 C   0  0  0  0  0  4           0  0  0
   -0.7741    1.2054    2.0700 C   0  0  0  0  0  4           0  0  0
   -3.9928    0.1154    6.9155 C   0  0  0  0  0  4           0  0  0
   -3.1593    0.1281    8.0281 C   0  0  0  0  0  4           0  0  0
    0.2363   -0.1109    6.5061 C   0  0  0  0  0  4           0  0  0
    1.8272   -2.4870    0.0227 C   0  0  0  0  0  4           0  0  0
   -0.0000    0.0000    0.0000 C   0  0  0  0  0  4           0  0  0
    1.7835    2.5224   -0.0227 C   0  0  0  0  0  4           0  0  0
    2.3733    2.9462    2.3960 C   0  0  0  0  0  4           0  0  0
    1.8275    3.6826    3.3701 C   0  0  0  0  0  4           0  0  0
    2.5219    3.4121    0.9770 C   0  0  0  0  0  4           0  0  0
  1  7  1  0     0  0
  2 22  2  0     0  0
  3 23  2  0     0  0
  4 22  1  0     0  0
  5  8  1  0     0  0
  5  9  1  0     0  0
  5 24  1  0     0  0
  6  7  1  0     0  0
  6  8  2  0     0  0
  7  9  2  0     0  0
  8 25  1  0     0  0
  9 23  1  0     0  0
 10 11  1  0     0  0
 10 12  1  0     0  0
 10 14  2  0     0  0
 11 15  2  0     0  0
 11 16  1  0     0  0
 12 17  2  0     0  0
 12 22  1  0     0  0
 13 18  2  0     0  0
 13 19  1  0     0  0
 13 24  1  0     0  0
 14 20  1  0     0  0
 15 18  1  0     0  0
 16 19  2  0     0  0
 17 21  1  0     0  0
 20 21  2  0     0  0
 25 28  1  0     0  0
 26 27  2  0     0  0
 26 28  1  0     0  0
M  END
> <standard_type>
pIC50

> <# Confs.>
25

> <canonical_smiles>
ClC(N=C1CCC=C)=C(C=O)N1CC2=CC=C(C3=CC=CC=C3C(O)=O)C=C2

> <standard_relation>
=

> <Publication_ID>
nan

> <predicted_activity_value>
7.3979400086720375

> <actual_activity_value>
6.657577319177793

> <Compound>
9

> <standard_units>
nM

> hash
10268325833990702466

$$$$
9_
XXILIB    08252103443D 0   0.00000     0.00000

 28 30  0     1  0            999 V2000
    5.0174   -1.4738    0.0638 Cl  0  0  0  0  0  1           0  0  0
    0.8402   -1.0452    6.0072 O   0  0  0  0  0  2           0  0  0
    1.1469   -3.0051   -0.8571 O   0  0  0  0  0  2           0  0  0
    0.8175    0.9682    7.0761 O   0  0  0  0  0  2           0  0  0
    1.4526   -0.0000    0.0000 N   0  0  0  0  0  3           0  0  0
    3.5362    0.7636    0.0243 N   0  0  0  0  0  3           0  0  0
    3.5476   -0.6067    0.0388 C   0  0  0  0  0  4           0  0  0
    2.2673    1.1150    0.0000 C   0  0  0  0  0  4           0  0  0
    2.2620   -1.1225    0.0230 C   0  0  0  0  0  4           0  0  0
   -2.0534    0.0028    5.4200 C   0  0  0  0  0  4           0  0  0
   -1.5335    0.0015    4.0456 C   0  0  0  0  0  4           0  0  0
   -1.2318   -0.0089    6.5696 C   0  0  0  0  0  4           0  0  0
   -0.5423    0.0000    1.3965 C   0  0  0  0  0  4           0  0  0
   -3.4468    0.0534    5.6299 C   0  0  0  0  0  4           0  0  0
   -1.2917   -1.2040    3.3703 C   0  0  0  0  0  4           0  0  0
   -1.2664    1.2059    3.3782 C   0  0  0  0  0  4           0  0  0
   -1.7794    0.0663    7.8589 C   0  0  0  0  0  4           0  0  0
   -0.8005   -1.2048    2.0615 C   0  0  0  0  0  4           0  0  0
   -0.7741    1.2054    2.0700 C   0  0  0  0  0  4           0  0  0
   -3.9928    0.1154    6.9155 C   0  0  0  0  0  4           0  0  0
   -3.1593    0.1281    8.0281 C   0  0  0  0  0  4           0  0  0
    0.2363   -0.1109    6.5061 C   0  0  0  0  0  4           0  0  0
    1.8272   -2.4870    0.0227 C   0  0  0  0  0  4           0  0  0
   -0.0000    0.0000    0.0000 C   0  0  0  0  0  4           0  0  0
    1.7835    2.5224   -0.0227 C   0  0  0  0  0  4           0  0  0
    2.0409    4.8338    0.9616 C   0  0  0  0  0  4           0  0  0
    1.5153    5.4554    2.0229 C   0  0  0  0  0  4           0  0  0
    2.5219    3.4121    0.9770 C   0  0  0  0  0  4           0  0  0
  1  7  1  0     0  0
  2 22  2  0     0  0
  3 23  2  0     0  0
  4 22  1  0     0  0
  5  8  1  0     0  0
  5  9  1  0     0  0
  5 24  1  0     0  0
  6  7  1  0     0  0
  6  8  2  0     0  0
  7  9  2  0     0  0
  8 25  1  0     0  0
  9 23  1  0     0  0
 10 11  1  0     0  0
 10 12  1  0     0  0
 10 14  2  0     0  0
 11 15  2  0     0  0
 11 16  1  0     0  0
 12 17  2  0     0  0
 12 22  1  0     0  0
 13 18  2  0     0  0
 13 19  1  0     0  0
 13 24  1  0     0  0
 14 20  1  0     0  0
 15 18  1  0     0  0
 16 19  2  0     0  0
 17 21  1  0     0  0
 20 21  2  0     0  0
 25 28  1  0     0  0
 26 27  2  0     0  0
 26 28  1  0     0  0
M  END
> <standard_type>
pIC50

> <# Confs.>
25

> <canonical_smiles>
ClC(N=C1CCC=C)=C(C=O)N1CC2=CC=C(C3=CC=CC=C3C(O)=O)C=C2

> <standard_relation>
=

> <Publication_ID>
nan

> <predicted_activity_value>
7.3979400086720375

> <actual_activity_value>
6.657577319177793

> <Compound>
9

> <standard_units>
nM

> hash
10268325833990702466

$$$$
9_
XXILIB    08252103443D 0   0.00000     0.00000

 28 30  0     1  0            999 V2000
    5.0174    1.4738   -0.0638 Cl  0  0  0  0  0  1           0  0  0
    0.8402   -1.0452    6.0072 O   0  0  0  0  0  2           0  0  0
    1.1225    2.9977   -0.8874 O   0  0  0  0  0  2           0  0  0
    0.8175    0.9682    7.0761 O   0  0  0  0  0  2           0  0  0
    1.4526   -0.0000   -0.0000 N   0  0  0  0  0  3           0  0  0
    3.5362   -0.7636   -0.0243 N   0  0  0  0  0  3           0  0  0
    3.5476    0.6067   -0.0388 C   0  0  0  0  0  4           0  0  0
    2.2673   -1.1150   -0.0000 C   0  0  0  0  0  4           0  0  0
    2.2620    1.1225   -0.0230 C   0  0  0  0  0  4           0  0  0
   -2.0534    0.0028    5.4200 C   0  0  0  0  0  4           0  0  0
   -1.5335    0.0015    4.0456 C   0  0  0  0  0  4           0  0  0
   -1.2318   -0.0089    6.5696 C   0  0  0  0  0  4           0  0  0
   -0.5423    0.0000    1.3965 C   0  0  0  0  0  4           0  0  0
   -3.4468    0.0534    5.6299 C   0  0  0  0  0  4           0  0  0
   -1.2917   -1.2040    3.3703 C   0  0  0  0  0  4           0  0  0
   -1.2664    1.2059    3.3782 C   0  0  0  0  0  4           0  0  0
   -1.7794    0.0663    7.8589 C   0  0  0  0  0  4           0  0  0
   -0.8005   -1.2048    2.0615 C   0  0  0  0  0  4           0  0  0
   -0.7741    1.2054    2.0700 C   0  0  0  0  0  4           0  0  0
   -3.9928    0.1154    6.9155 C   0  0  0  0  0  4           0  0  0
   -3.1593    0.1281    8.0281 C   0  0  0  0  0  4           0  0  0
    0.2363   -0.1109    6.5061 C   0  0  0  0  0  4           0  0  0
    1.8272    2.4870   -0.0227 C   0  0  0  0  0  4           0  0  0
   -0.0000    0.0000    0.0000 C   0  0  0  0  0  4           0  0  0
    1.7835   -2.5224    0.0227 C   0  0  0  0  0  4           0  0  0
    2.0409   -4.8338   -0.9616 C   0  0  0  0  0  4           0  0  0
    2.8212   -5.8826   -0.6782 C   0  0  0  0  0  4           0  0  0
    2.5219   -3.4121   -0.9770 C   0  0  0  0  0  4           0  0  0
  1  7  1  0     0  0
  2 22  2  0     0  0
  3 23  2  0     0  0
  4 22  1  0     0  0
  5  8  1  0     0  0
  5  9  1  0     0  0
  5 24  1  0     0  0
  6  7  1  0     0  0
  6  8  2  0     0  0
  7  9  2  0     0  0
  8 25  1  0     0  0
  9 23  1  0     0  0
 10 11  1  0     0  0
 10 12  1  0     0  0
 10 14  2  0     0  0
 11 15  2  0     0  0
 11 16  1  0     0  0
 12 17  2  0     0  0
 12 22  1  0     0  0
 13 18  2  0     0  0
 13 19  1  0     0  0
 13 24  1  0     0  0
 14 20  1  0     0  0
 15 18  1  0     0  0
 16 19  2  0     0  0
 17 21  1  0     0  0
 20 21  2  0     0  0
 25 28  1  0     0  0
 26 27  2  0     0  0
 26 28  1  0     0  0
M  END
> <standard_type>
pIC50

> <# Confs.>
25

> <canonical_smiles>
ClC(N=C1CCC=C)=C(C=O)N1CC2=CC=C(C3=CC=CC=C3C(O)=O)C=C2

> <standard_relation>
=

> <Publication_ID>
nan

> <predicted_activity_value>
7.3979400086720375

> <actual_activity_value>
6.657577319177793

> <Compound>
9

> <standard_units>
nM

> hash
10268325833990702466

$$$$
9_
XXILIB    08252103443D 0   0.00000     0.00000

 28 30  0     1  0            999 V2000
    5.0174    1.4738   -0.0638 Cl  0  0  0  0  0  1           0  0  0
   -4.6106    1.0499    3.9433 O   0  0  0  0  0  2           0  0  0
    1.1225    2.9977   -0.8874 O   0  0  0  0  0  2           0  0  0
   -5.3023   -0.9616    4.7630 O   0  0  0  0  0  2           0  0  0
    1.4526   -0.0000   -0.0000 N   0  0  0  0  0  3           0  0  0
    3.5362   -0.7636   -0.0243 N   0  0  0  0  0  3           0  0  0
    3.5476    0.6067   -0.0388 C   0  0  0  0  0  4           0  0  0
    2.2673   -1.1150   -0.0000 C   0  0  0  0  0  4           0  0  0
    2.2620    1.1225   -0.0230 C   0  0  0  0  0  4           0  0  0
   -2.0534    0.0028    5.4200 C   0  0  0  0  0  4           0  0  0
   -1.5335    0.0015    4.0456 C   0  0  0  0  0  4           0  0  0
   -3.4302    0.0159    5.7379 C   0  0  0  0  0  4           0  0  0
   -0.5423    0.0000    1.3965 C   0  0  0  0  0  4           0  0  0
   -1.1479   -0.0466    6.4996 C   0  0  0  0  0  4           0  0  0
   -1.2917   -1.2040    3.3703 C   0  0  0  0  0  4           0  0  0
   -1.2664    1.2059    3.3782 C   0  0  0  0  0  4           0  0  0
   -3.8731   -0.0567    7.0670 C   0  0  0  0  0  4           0  0  0
   -0.8005   -1.2048    2.0615 C   0  0  0  0  0  4           0  0  0
   -0.7741    1.2054    2.0700 C   0  0  0  0  0  4           0  0  0
   -1.5895   -0.1061    7.8248 C   0  0  0  0  0  4           0  0  0
   -2.9507   -0.1174    8.1072 C   0  0  0  0  0  4           0  0  0
   -4.4887    0.1168    4.7186 C   0  0  0  0  0  4           0  0  0
    1.8272    2.4870   -0.0227 C   0  0  0  0  0  4           0  0  0
   -0.0000    0.0000    0.0000 C   0  0  0  0  0  4           0  0  0
    1.7835   -2.5224    0.0227 C   0  0  0  0  0  4           0  0  0
    2.3733   -2.9462   -2.3960 C   0  0  0  0  0  4           0  0  0
    1.8275   -3.6826   -3.3701 C   0  0  0  0  0  4           0  0  0
    2.5219   -3.4121   -0.9770 C   0  0  0  0  0  4           0  0  0
  1  7  1  0     0  0
  2 22  2  0     0  0
  3 23  2  0     0  0
  4 22  1  0     0  0
  5  8  1  0     0  0
  5  9  1  0     0  0
  5 24  1  0     0  0
  6  7  1  0     0  0
  6  8  2  0     0  0
  7  9  2  0     0  0
  8 25  1  0     0  0
  9 23  1  0     0  0
 10 11  1  0     0  0
 10 12  1  0     0  0
 10 14  2  0     0  0
 11 15  2  0     0  0
 11 16  1  0     0  0
 12 17  2  0     0  0
 12 22  1  0     0  0
 13 18  2  0     0  0
 13 19  1  0     0  0
 13 24  1  0     0  0
 14 20  1  0     0  0
 15 18  1  0     0  0
 16 19  2  0     0  0
 17 21  1  0     0  0
 20 21  2  0     0  0
 25 28  1  0     0  0
 26 27  2  0     0  0
 26 28  1  0     0  0
M  END
> <standard_type>
pIC50

> <# Confs.>
25

> <canonical_smiles>
ClC(N=C1CCC=C)=C(C=O)N1CC2=CC=C(C3=CC=CC=C3C(O)=O)C=C2

> <standard_relation>
=

> <Publication_ID>
nan

> <predicted_activity_value>
7.3979400086720375

> <actual_activity_value>
6.657577319177793

> <Compound>
9

> <standard_units>
nM

> hash
10268325833990702466

$$$$
9_
XXILIB    08252103443D 0   0.00000     0.00000

 28 30  0     1  0            999 V2000
    5.0174    1.4738   -0.0638 Cl  0  0  0  0  0  1           0  0  0
   -4.7359   -0.5476    3.8975 O   0  0  0  0  0  2           0  0  0
    1.1225    2.9977   -0.8874 O   0  0  0  0  0  2           0  0  0
   -4.4416   -2.4679    5.0900 O   0  0  0  0  0  2           0  0  0
    1.4526   -0.0000   -0.0000 N   0  0  0  0  0  3           0  0  0
    3.5362   -0.7636   -0.0243 N   0  0  0  0  0  3           0  0  0
    3.5476    0.6067   -0.0388 C   0  0  0  0  0  4           0  0  0
    2.2673   -1.1150   -0.0000 C   0  0  0  0  0  4           0  0  0
    2.2620    1.1225   -0.0230 C   0  0  0  0  0  4           0  0  0
   -2.0534    0.0028    5.4200 C   0  0  0  0  0  4           0  0  0
   -1.5335    0.0015    4.0456 C   0  0  0  0  0  4           0  0  0
   -3.2890   -0.5734    5.7919 C   0  0  0  0  0  4           0  0  0
   -0.5423    0.0000    1.3965 C   0  0  0  0  0  4           0  0  0
   -1.2783    0.5746    6.4497 C   0  0  0  0  0  4           0  0  0
   -1.2917   -1.2040    3.3703 C   0  0  0  0  0  4           0  0  0
   -1.2664    1.2059    3.3782 C   0  0  0  0  0  4           0  0  0
   -3.7043   -0.6081    7.1314 C   0  0  0  0  0  4           0  0  0
   -0.8005   -1.2048    2.0615 C   0  0  0  0  0  4           0  0  0
   -0.7741    1.2054    2.0700 C   0  0  0  0  0  4           0  0  0
   -1.6985    0.5512    7.7829 C   0  0  0  0  0  4           0  0  0
   -2.9072   -0.0452    8.1236 C   0  0  0  0  0  4           0  0  0
   -4.2258   -1.1614    4.8192 C   0  0  0  0  0  4           0  0  0
    1.8272    2.4870   -0.0227 C   0  0  0  0  0  4           0  0  0
   -0.0000    0.0000    0.0000 C   0  0  0  0  0  4           0  0  0
    1.7835   -2.5224    0.0227 C   0  0  0  0  0  4           0  0  0
    2.0409   -4.8338   -0.9616 C   0  0  0  0  0  4           0  0  0
    2.8212   -5.8826   -0.6782 C   0  0  0  0  0  4           0  0  0
    2.5219   -3.4121   -0.9770 C   0  0  0  0  0  4           0  0  0
  1  7  1  0     0  0
  2 22  2  0     0  0
  3 23  2  0     0  0
  4 22  1  0     0  0
  5  8  1  0     0  0
  5  9  1  0     0  0
  5 24  1  0     0  0
  6  7  1  0     0  0
  6  8  2  0     0  0
  7  9  2  0     0  0
  8 25  1  0     0  0
  9 23  1  0     0  0
 10 11  1  0     0  0
 10 12  1  0     0  0
 10 14  2  0     0  0
 11 15  2  0     0  0
 11 16  1  0     0  0
 12 17  2  0     0  0
 12 22  1  0     0  0
 13 18  2  0     0  0
 13 19  1  0     0  0
 13 24  1  0     0  0
 14 20  1  0     0  0
 15 18  1  0     0  0
 16 19  2  0     0  0
 17 21  1  0     0  0
 20 21  2  0     0  0
 25 28  1  0     0  0
 26 27  2  0     0  0
 26 28  1  0     0  0
M  END
> <standard_type>
pIC50

> <# Confs.>
25

> <canonical_smiles>
ClC(N=C1CCC=C)=C(C=O)N1CC2=CC=C(C3=CC=CC=C3C(O)=O)C=C2

> <standard_relation>
=

> <Publication_ID>
nan

> <predicted_activity_value>
7.3979400086720375

> <actual_activity_value>
6.657577319177793

> <Compound>
9

> <standard_units>
nM

> hash
10268325833990702466

$$$$
9_
XXILIB    08252103443D 0   0.00000     0.00000

 28 30  0     1  0            999 V2000
    5.0174    1.4738   -0.0638 Cl  0  0  0  0  0  1           0  0  0
    0.9580    0.6929    5.9408 O   0  0  0  0  0  2           0  0  0
    1.1225    2.9977   -0.8874 O   0  0  0  0  0  2           0  0  0
    0.6694   -1.2139    7.1563 O   0  0  0  0  0  2           0  0  0
    1.4526    0.0000   -0.0000 N   0  0  0  0  0  3           0  0  0
    3.5362   -0.7636   -0.0243 N   0  0  0  0  0  3           0  0  0
    3.5476    0.6067   -0.0388 C   0  0  0  0  0  4           0  0  0
    2.2673   -1.1150    0.0000 C   0  0  0  0  0  4           0  0  0
    2.2620    1.1225   -0.0230 C   0  0  0  0  0  4           0  0  0
   -2.0534    0.0028    5.4200 C   0  0  0  0  0  4           0  0  0
   -1.5335    0.0015    4.0456 C   0  0  0  0  0  4           0  0  0
   -1.2318   -0.0089    6.5696 C   0  0  0  0  0  4           0  0  0
   -0.5423    0.0000    1.3965 C   0  0  0  0  0  4           0  0  0
   -3.4468    0.0534    5.6299 C   0  0  0  0  0  4           0  0  0
   -1.2917   -1.2040    3.3703 C   0  0  0  0  0  4           0  0  0
   -1.2664    1.2059    3.3782 C   0  0  0  0  0  4           0  0  0
   -1.7794    0.0663    7.8589 C   0  0  0  0  0  4           0  0  0
   -0.8005   -1.2048    2.0615 C   0  0  0  0  0  4           0  0  0
   -0.7741    1.2054    2.0700 C   0  0  0  0  0  4           0  0  0
   -3.9928    0.1154    6.9155 C   0  0  0  0  0  4           0  0  0
   -3.1593    0.1281    8.0281 C   0  0  0  0  0  4           0  0  0
    0.2363   -0.1109    6.5061 C   0  0  0  0  0  4           0  0  0
    1.8272    2.4870   -0.0227 C   0  0  0  0  0  4           0  0  0
   -0.0000    0.0000    0.0000 C   0  0  0  0  0  4           0  0  0
    1.7835   -2.5224    0.0227 C   0  0  0  0  0  4           0  0  0
    2.4500   -4.9583    0.0395 C   0  0  0  0  0  4           0  0  0
    2.7528   -5.8319    1.0059 C   0  0  0  0  0  4           0  0  0
    2.9279   -3.5356    0.0167 C   0  0  0  0  0  4           0  0  0
  1  7  1  0     0  0
  2 22  2  0     0  0
  3 23  2  0     0  0
  4 22  1  0     0  0
  5  8  1  0     0  0
  5  9  1  0     0  0
  5 24  1  0     0  0
  6  7  1  0     0  0
  6  8  2  0     0  0
  7  9  2  0     0  0
  8 25  1  0     0  0
  9 23  1  0     0  0
 10 11  1  0     0  0
 10 12  1  0     0  0
 10 14  2  0     0  0
 11 15  2  0     0  0
 11 16  1  0     0  0
 12 17  2  0     0  0
 12 22  1  0     0  0
 13 18  2  0     0  0
 13 19  1  0     0  0
 13 24  1  0     0  0
 14 20  1  0     0  0
 15 18  1  0     0  0
 16 19  2  0     0  0
 17 21  1  0     0  0
 20 21  2  0     0  0
 25 28  1  0     0  0
 26 27  2  0     0  0
 26 28  1  0     0  0
M  END
> <standard_type>
pIC50

> <# Confs.>
25

> <canonical_smiles>
ClC(N=C1CCC=C)=C(C=O)N1CC2=CC=C(C3=CC=CC=C3C(O)=O)C=C2

> <standard_relation>
=

> <Publication_ID>
nan

> <predicted_activity_value>
7.3979400086720375

> <actual_activity_value>
6.657577319177793

> <Compound>
9

> <standard_units>
nM

> hash
10268325833990702466

$$$$
9_
XXILIB    08252103443D 0   0.00000     0.00000

 28 30  0     1  0            999 V2000
    5.0174   -1.4738    0.0638 Cl  0  0  0  0  0  1           0  0  0
   -4.6561   -0.6884    3.8185 O   0  0  0  0  0  2           0  0  0
    1.1469   -3.0051   -0.8571 O   0  0  0  0  0  2           0  0  0
   -5.2430    1.2206    4.9174 O   0  0  0  0  0  2           0  0  0
    1.4526    0.0000   -0.0000 N   0  0  0  0  0  3           0  0  0
    3.5362    0.7636    0.0243 N   0  0  0  0  0  3           0  0  0
    3.5476   -0.6067    0.0388 C   0  0  0  0  0  4           0  0  0
    2.2673    1.1150    0.0000 C   0  0  0  0  0  4           0  0  0
    2.2620   -1.1225    0.0230 C   0  0  0  0  0  4           0  0  0
   -2.0534    0.0028    5.4200 C   0  0  0  0  0  4           0  0  0
   -1.5335    0.0015    4.0456 C   0  0  0  0  0  4           0  0  0
   -3.4302    0.0159    5.7379 C   0  0  0  0  0  4           0  0  0
   -0.5423    0.0000    1.3965 C   0  0  0  0  0  4           0  0  0
   -1.1479   -0.0466    6.4996 C   0  0  0  0  0  4           0  0  0
   -1.2917   -1.2040    3.3703 C   0  0  0  0  0  4           0  0  0
   -1.2664    1.2059    3.3782 C   0  0  0  0  0  4           0  0  0
   -3.8731   -0.0567    7.0670 C   0  0  0  0  0  4           0  0  0
   -0.8005   -1.2048    2.0615 C   0  0  0  0  0  4           0  0  0
   -0.7741    1.2054    2.0700 C   0  0  0  0  0  4           0  0  0
   -1.5895   -0.1061    7.8248 C   0  0  0  0  0  4           0  0  0
   -2.9507   -0.1174    8.1072 C   0  0  0  0  0  4           0  0  0
   -4.4887    0.1168    4.7186 C   0  0  0  0  0  4           0  0  0
    1.8272   -2.4870    0.0227 C   0  0  0  0  0  4           0  0  0
   -0.0000    0.0000    0.0000 C   0  0  0  0  0  4           0  0  0
    1.7835    2.5224   -0.0227 C   0  0  0  0  0  4           0  0  0
    2.0712    4.8117   -1.0494 C   0  0  0  0  0  4           0  0  0
    2.8429    5.8668   -0.7658 C   0  0  0  0  0  4           0  0  0
    2.5519    3.3902   -1.0191 C   0  0  0  0  0  4           0  0  0
  1  7  1  0     0  0
  2 22  2  0     0  0
  3 23  2  0     0  0
  4 22  1  0     0  0
  5  8  1  0     0  0
  5  9  1  0     0  0
  5 24  1  0     0  0
  6  7  1  0     0  0
  6  8  2  0     0  0
  7  9  2  0     0  0
  8 25  1  0     0  0
  9 23  1  0     0  0
 10 11  1  0     0  0
 10 12  1  0     0  0
 10 14  2  0     0  0
 11 15  2  0     0  0
 11 16  1  0     0  0
 12 17  2  0     0  0
 12 22  1  0     0  0
 13 18  2  0     0  0
 13 19  1  0     0  0
 13 24  1  0     0  0
 14 20  1  0     0  0
 15 18  1  0     0  0
 16 19  2  0     0  0
 17 21  1  0     0  0
 20 21  2  0     0  0
 25 28  1  0     0  0
 26 27  2  0     0  0
 26 28  1  0     0  0
M  END
> <standard_type>
pIC50

> <# Confs.>
25

> <canonical_smiles>
ClC(N=C1CCC=C)=C(C=O)N1CC2=CC=C(C3=CC=CC=C3C(O)=O)C=C2

> <standard_relation>
=

> <Publication_ID>
nan

> <predicted_activity_value>
7.3979400086720375

> <actual_activity_value>
6.657577319177793

> <Compound>
9

> <standard_units>
nM

> hash
10268325833990702466

$$$$
9_
XXILIB    08252103443D 0   0.00000     0.00000

 28 30  0     1  0            999 V2000
    5.0174    1.4738   -0.0638 Cl  0  0  0  0  0  1           0  0  0
   -4.6106    1.0499    3.9433 O   0  0  0  0  0  2           0  0  0
    1.1225    2.9977   -0.8874 O   0  0  0  0  0  2           0  0  0
   -5.3023   -0.9616    4.7630 O   0  0  0  0  0  2           0  0  0
    1.4526    0.0000   -0.0000 N   0  0  0  0  0  3           0  0  0
    3.5362   -0.7636   -0.0243 N   0  0  0  0  0  3           0  0  0
    3.5476    0.6067   -0.0388 C   0  0  0  0  0  4           0  0  0
    2.2673   -1.1150    0.0000 C   0  0  0  0  0  4           0  0  0
    2.2620    1.1225   -0.0230 C   0  0  0  0  0  4           0  0  0
   -2.0534    0.0028    5.4200 C   0  0  0  0  0  4           0  0  0
   -1.5335    0.0015    4.0456 C   0  0  0  0  0  4           0  0  0
   -3.4302    0.0159    5.7379 C   0  0  0  0  0  4           0  0  0
   -0.5423    0.0000    1.3965 C   0  0  0  0  0  4           0  0  0
   -1.1479   -0.0466    6.4996 C   0  0  0  0  0  4           0  0  0
   -1.2917   -1.2040    3.3703 C   0  0  0  0  0  4           0  0  0
   -1.2664    1.2059    3.3782 C   0  0  0  0  0  4           0  0  0
   -3.8731   -0.0567    7.0670 C   0  0  0  0  0  4           0  0  0
   -0.8005   -1.2048    2.0615 C   0  0  0  0  0  4           0  0  0
   -0.7741    1.2054    2.0700 C   0  0  0  0  0  4           0  0  0
   -1.5895   -0.1061    7.8248 C   0  0  0  0  0  4           0  0  0
   -2.9507   -0.1174    8.1072 C   0  0  0  0  0  4           0  0  0
   -4.4887    0.1168    4.7186 C   0  0  0  0  0  4           0  0  0
    1.8272    2.4870   -0.0227 C   0  0  0  0  0  4           0  0  0
   -0.0000    0.0000    0.0000 C   0  0  0  0  0  4           0  0  0
    1.7835   -2.5224    0.0227 C   0  0  0  0  0  4           0  0  0
    2.4500   -4.9583    0.0395 C   0  0  0  0  0  4           0  0  0
    2.7528   -5.8319    1.0059 C   0  0  0  0  0  4           0  0  0
    2.9279   -3.5356    0.0167 C   0  0  0  0  0  4           0  0  0
  1  7  1  0     0  0
  2 22  2  0     0  0
  3 23  2  0     0  0
  4 22  1  0     0  0
  5  8  1  0     0  0
  5  9  1  0     0  0
  5 24  1  0     0  0
  6  7  1  0     0  0
  6  8  2  0     0  0
  7  9  2  0     0  0
  8 25  1  0     0  0
  9 23  1  0     0  0
 10 11  1  0     0  0
 10 12  1  0     0  0
 10 14  2  0     0  0
 11 15  2  0     0  0
 11 16  1  0     0  0
 12 17  2  0     0  0
 12 22  1  0     0  0
 13 18  2  0     0  0
 13 19  1  0     0  0
 13 24  1  0     0  0
 14 20  1  0     0  0
 15 18  1  0     0  0
 16 19  2  0     0  0
 17 21  1  0     0  0
 20 21  2  0     0  0
 25 28  1  0     0  0
 26 27  2  0     0  0
 26 28  1  0     0  0
M  END
> <standard_type>
pIC50

> <# Confs.>
25

> <canonical_smiles>
ClC(N=C1CCC=C)=C(C=O)N1CC2=CC=C(C3=CC=CC=C3C(O)=O)C=C2

> <standard_relation>
=

> <Publication_ID>
nan

> <predicted_activity_value>
7.3979400086720375

> <actual_activity_value>
6.657577319177793

> <Compound>
9

> <standard_units>
nM

> hash
10268325833990702466

$$$$
9_
XXILIB    08252103443D 0   0.00000     0.00000

 28 30  0     1  0            999 V2000
    5.0174    1.4738   -0.0638 Cl  0  0  0  0  0  1           0  0  0
   -0.0804   -2.5593    6.1627 O   0  0  0  0  0  2           0  0  0
    1.1225    2.9977   -0.8874 O   0  0  0  0  0  2           0  0  0
    0.9405   -0.5482    6.4938 O   0  0  0  0  0  2           0  0  0
    1.4526    0.0000   -0.0000 N   0  0  0  0  0  3           0  0  0
    3.5362   -0.7636   -0.0243 N   0  0  0  0  0  3           0  0  0
    3.5476    0.6067   -0.0388 C   0  0  0  0  0  4           0  0  0
    2.2673   -1.1150    0.0000 C   0  0  0  0  0  4           0  0  0
    2.2620    1.1225   -0.0230 C   0  0  0  0  0  4           0  0  0
   -2.0534    0.0028    5.4200 C   0  0  0  0  0  4           0  0  0
   -1.5335    0.0015    4.0456 C   0  0  0  0  0  4           0  0  0
   -1.3851   -0.5949    6.5122 C   0  0  0  0  0  4           0  0  0
   -0.5423    0.0000    1.3965 C   0  0  0  0  0  4           0  0  0
   -3.2692    0.6612    5.6965 C   0  0  0  0  0  4           0  0  0
   -1.2917   -1.2040    3.3703 C   0  0  0  0  0  4           0  0  0
   -1.2664    1.2059    3.3782 C   0  0  0  0  0  4           0  0  0
   -1.8911   -0.5016    7.8172 C   0  0  0  0  0  4           0  0  0
   -0.8005   -1.2048    2.0615 C   0  0  0  0  0  4           0  0  0
   -0.7741    1.2054    2.0700 C   0  0  0  0  0  4           0  0  0
   -3.7798    0.7430    6.9954 C   0  0  0  0  0  4           0  0  0
   -3.0879    0.1674    8.0550 C   0  0  0  0  0  4           0  0  0
   -0.1339   -1.3586    6.3673 C   0  0  0  0  0  4           0  0  0
    1.8272    2.4870   -0.0227 C   0  0  0  0  0  4           0  0  0
   -0.0000    0.0000    0.0000 C   0  0  0  0  0  4           0  0  0
    1.7835   -2.5224    0.0227 C   0  0  0  0  0  4           0  0  0
    2.4500   -4.9583    0.0395 C   0  0  0  0  0  4           0  0  0
    2.7528   -5.8319    1.0059 C   0  0  0  0  0  4           0  0  0
    2.9279   -3.5356    0.0167 C   0  0  0  0  0  4           0  0  0
  1  7  1  0     0  0
  2 22  2  0     0  0
  3 23  2  0     0  0
  4 22  1  0     0  0
  5  8  1  0     0  0
  5  9  1  0     0  0
  5 24  1  0     0  0
  6  7  1  0     0  0
  6  8  2  0     0  0
  7  9  2  0     0  0
  8 25  1  0     0  0
  9 23  1  0     0  0
 10 11  1  0     0  0
 10 12  1  0     0  0
 10 14  2  0     0  0
 11 15  2  0     0  0
 11 16  1  0     0  0
 12 17  2  0     0  0
 12 22  1  0     0  0
 13 18  2  0     0  0
 13 19  1  0     0  0
 13 24  1  0     0  0
 14 20  1  0     0  0
 15 18  1  0     0  0
 16 19  2  0     0  0
 17 21  1  0     0  0
 20 21  2  0     0  0
 25 28  1  0     0  0
 26 27  2  0     0  0
 26 28  1  0     0  0
M  END
> <standard_type>
pIC50

> <# Confs.>
25

> <canonical_smiles>
ClC(N=C1CCC=C)=C(C=O)N1CC2=CC=C(C3=CC=CC=C3C(O)=O)C=C2

> <standard_relation>
=

> <Publication_ID>
nan

> <predicted_activity_value>
7.3979400086720375

> <actual_activity_value>
6.657577319177793

> <Compound>
9

> <standard_units>
nM

> hash
10268325833990702466

$$$$
9_
XXILIB    08252103443D 0   0.00000     0.00000

 28 30  0     1  0            999 V2000
    5.0174    1.4738   -0.0638 Cl  0  0  0  0  0  1           0  0  0
   -4.2140   -2.3303    4.4726 O   0  0  0  0  0  2           0  0  0
    1.1225    2.9977   -0.8874 O   0  0  0  0  0  2           0  0  0
   -5.0941   -0.2301    4.3656 O   0  0  0  0  0  2           0  0  0
    1.4526    0.0000   -0.0000 N   0  0  0  0  0  3           0  0  0
    3.5362   -0.7636   -0.0243 N   0  0  0  0  0  3           0  0  0
    3.5476    0.6067   -0.0388 C   0  0  0  0  0  4           0  0  0
    2.2673   -1.1150    0.0000 C   0  0  0  0  0  4           0  0  0
    2.2620    1.1225   -0.0230 C   0  0  0  0  0  4           0  0  0
   -2.0534    0.0028    5.4200 C   0  0  0  0  0  4           0  0  0
   -1.5335    0.0015    4.0456 C   0  0  0  0  0  4           0  0  0
   -3.2890   -0.5734    5.7919 C   0  0  0  0  0  4           0  0  0
   -0.5423    0.0000    1.3965 C   0  0  0  0  0  4           0  0  0
   -1.2783    0.5746    6.4497 C   0  0  0  0  0  4           0  0  0
   -1.2917   -1.2040    3.3703 C   0  0  0  0  0  4           0  0  0
   -1.2664    1.2059    3.3782 C   0  0  0  0  0  4           0  0  0
   -3.7043   -0.6081    7.1314 C   0  0  0  0  0  4           0  0  0
   -0.8005   -1.2048    2.0615 C   0  0  0  0  0  4           0  0  0
   -0.7741    1.2054    2.0700 C   0  0  0  0  0  4           0  0  0
   -1.6985    0.5512    7.7829 C   0  0  0  0  0  4           0  0  0
   -2.9072   -0.0452    8.1236 C   0  0  0  0  0  4           0  0  0
   -4.2258   -1.1614    4.8192 C   0  0  0  0  0  4           0  0  0
    1.8272    2.4870   -0.0227 C   0  0  0  0  0  4           0  0  0
   -0.0000    0.0000    0.0000 C   0  0  0  0  0  4           0  0  0
    1.7835   -2.5224    0.0227 C   0  0  0  0  0  4           0  0  0
    2.4500   -4.9583    0.0395 C   0  0  0  0  0  4           0  0  0
    2.7528   -5.8319    1.0059 C   0  0  0  0  0  4           0  0  0
    2.9279   -3.5356    0.0167 C   0  0  0  0  0  4           0  0  0
  1  7  1  0     0  0
  2 22  2  0     0  0
  3 23  2  0     0  0
  4 22  1  0     0  0
  5  8  1  0     0  0
  5  9  1  0     0  0
  5 24  1  0     0  0
  6  7  1  0     0  0
  6  8  2  0     0  0
  7  9  2  0     0  0
  8 25  1  0     0  0
  9 23  1  0     0  0
 10 11  1  0     0  0
 10 12  1  0     0  0
 10 14  2  0     0  0
 11 15  2  0     0  0
 11 16  1  0     0  0
 12 17  2  0     0  0
 12 22  1  0     0  0
 13 18  2  0     0  0
 13 19  1  0     0  0
 13 24  1  0     0  0
 14 20  1  0     0  0
 15 18  1  0     0  0
 16 19  2  0     0  0
 17 21  1  0     0  0
 20 21  2  0     0  0
 25 28  1  0     0  0
 26 27  2  0     0  0
 26 28  1  0     0  0
M  END
> <standard_type>
pIC50

> <# Confs.>
25

> <canonical_smiles>
ClC(N=C1CCC=C)=C(C=O)N1CC2=CC=C(C3=CC=CC=C3C(O)=O)C=C2

> <standard_relation>
=

> <Publication_ID>
nan

> <predicted_activity_value>
7.3979400086720375

> <actual_activity_value>
6.657577319177793

> <Compound>
9

> <standard_units>
nM

> hash
10268325833990702466

$$$$
12_
XXILIB    08252103443D 0   0.00000     0.00000

 32 35  0     1  0            999 V2000
    5.0102    1.4826   -0.0264 Cl  0  0  0  0  0  1           0  0  0
   -5.1481    1.2218    6.9571 O   0  0  0  0  0  2           0  0  0
    1.6581    2.9298    1.3453 O   0  0  0  0  0  2           0  0  0
    1.9814   -1.5718    5.6979 N   0  0  0  0  0  3           0  0  0
    1.6705   -2.4227    6.6661 N   0  0  0  0  0  3           0  0  0
    0.8898   -0.8116    5.5396 N   0  0  0  0  0  3           0  0  0
    0.3905   -2.2074    7.1224 N   0  0  0  0  0  3           0  0  0
    1.4520    0.0000    0.0000 N   0  0  0  0  0  3           0  0  0
    3.5373   -0.7678   -0.0096 N   0  0  0  0  0  3           0  0  0
    3.5506    0.6018   -0.0167 C   0  0  0  0  0  4           0  0  0
   -3.9240    0.6056    6.8956 C   0  0  0  0  0  4           0  0  0
   -0.0877   -1.2034    6.4140 C   0  0  0  0  0  4           0  0  0
    2.2665   -1.1166    0.0000 C   0  0  0  0  0  4           0  0  0
    2.2672    1.1152   -0.0106 C   0  0  0  0  0  4           0  0  0
   -1.3930   -0.5951    6.5012 C   0  0  0  0  0  4           0  0  0
   -2.0600    0.0030    5.4047 C   0  0  0  0  0  4           0  0  0
   -1.5399    0.0011    4.0428 C   0  0  0  0  0  4           0  0  0
   -0.5416    0.0000    1.3968 C   0  0  0  0  0  4           0  0  0
   -3.3186    0.6034    5.6339 C   0  0  0  0  0  4           0  0  0
   -3.2670    0.0004    7.9619 C   0  0  0  0  0  4           0  0  0
   -2.0183   -0.5932    7.7629 C   0  0  0  0  0  4           0  0  0
   -1.2953   -1.2044    3.3685 C   0  0  0  0  0  4           0  0  0
   -1.2711    1.2057    3.3766 C   0  0  0  0  0  4           0  0  0
   -0.7995   -1.2048    2.0616 C   0  0  0  0  0  4           0  0  0
   -0.7758    1.2051    2.0697 C   0  0  0  0  0  4           0  0  0
    1.7859    2.5132   -0.0073 C   0  0  0  0  0  4           0  0  0
   -5.6541    1.1551    8.2909 C   0  0  0  0  0  4           0  0  0
    0.0000    0.0000    0.0000 C   0  0  0  0  0  4           0  0  0
    1.7789   -2.5229    0.0147 C   0  0  0  0  0  4           0  0  0
    2.5221   -3.4043   -0.9841 C   0  0  0  0  0  4           0  0  0
    2.3995   -2.9470   -2.4382 C   0  0  0  0  0  4           0  0  0
    3.1610   -3.8658   -3.3805 C   0  0  0  0  0  4           0  0  0
  1 10  1  0     0  0
  2 11  1  0     0  0
  2 27  1  0     0  0
  3 26  1  0     0  0
  4  5  2  0     0  0
  4  6  1  0     0  0
  5  7  1  0     0  0
  6 12  1  0     0  0
  7 12  2  0     0  0
  8 13  1  0     0  0
  8 14  1  0     0  0
  8 28  1  0     0  0
  9 10  1  0     0  0
  9 13  2  0     0  0
 10 14  2  0     0  0
 11 19  1  0     0  0
 11 20  2  0     0  0
 12 15  1  0     0  0
 13 29  1  0     0  0
 14 26  1  0     0  0
 15 16  1  0     0  0
 15 21  2  0     0  0
 16 17  1  0     0  0
 16 19  2  0     0  0
 17 22  2  0     0  0
 17 23  1  0     0  0
 18 24  2  0     0  0
 18 25  1  0     0  0
 18 28  1  0     0  0
 20 21  1  0     0  0
 22 24  1  0     0  0
 23 25  2  0     0  0
 29 30  1  0     0  0
 30 31  1  0     0  0
 31 32  1  0     0  0
M  END
> <standard_type>
pIC50

> <# Confs.>
25

> <canonical_smiles>
ClC(N=C1CCCC)=C(CO)N1CC2=CC=C(C3=CC(OC)=CC=C3C4=NN=NN4)C=C2

> <standard_relation>
=

> <Publication_ID>
nan

> <predicted_activity_value>
7.102372908709558

> <actual_activity_value>
6.292429823902063

> <Compound>
12

> <standard_units>
nM

> hash
15917884378459634572

$$$$
12_
XXILIB    08252103443D 0   0.00000     0.00000

 32 35  0     1  0            999 V2000
    5.0102    1.4826   -0.0264 Cl  0  0  0  0  0  1           0  0  0
   -5.1481    1.2218    6.9571 O   0  0  0  0  0  2           0  0  0
    1.6581    2.9298    1.3453 O   0  0  0  0  0  2           0  0  0
    1.9814   -1.5718    5.6979 N   0  0  0  0  0  3           0  0  0
    1.6705   -2.4227    6.6661 N   0  0  0  0  0  3           0  0  0
    0.8898   -0.8116    5.5396 N   0  0  0  0  0  3           0  0  0
    0.3905   -2.2074    7.1224 N   0  0  0  0  0  3           0  0  0
    1.4520    0.0000    0.0000 N   0  0  0  0  0  3           0  0  0
    3.5373   -0.7678   -0.0096 N   0  0  0  0  0  3           0  0  0
    3.5506    0.6018   -0.0167 C   0  0  0  0  0  4           0  0  0
   -3.9240    0.6056    6.8956 C   0  0  0  0  0  4           0  0  0
   -0.0877   -1.2034    6.4140 C   0  0  0  0  0  4           0  0  0
    2.2665   -1.1166    0.0000 C   0  0  0  0  0  4           0  0  0
    2.2672    1.1152   -0.0106 C   0  0  0  0  0  4           0  0  0
   -1.3930   -0.5951    6.5012 C   0  0  0  0  0  4           0  0  0
   -2.0600    0.0030    5.4047 C   0  0  0  0  0  4           0  0  0
   -1.5399    0.0011    4.0428 C   0  0  0  0  0  4           0  0  0
   -0.5416    0.0000    1.3968 C   0  0  0  0  0  4           0  0  0
   -3.3186    0.6034    5.6339 C   0  0  0  0  0  4           0  0  0
   -3.2670    0.0004    7.9619 C   0  0  0  0  0  4           0  0  0
   -2.0183   -0.5932    7.7629 C   0  0  0  0  0  4           0  0  0
   -1.2953   -1.2044    3.3685 C   0  0  0  0  0  4           0  0  0
   -1.2711    1.2057    3.3766 C   0  0  0  0  0  4           0  0  0
   -0.7995   -1.2048    2.0616 C   0  0  0  0  0  4           0  0  0
   -0.7758    1.2051    2.0697 C   0  0  0  0  0  4           0  0  0
    1.7859    2.5132   -0.0073 C   0  0  0  0  0  4           0  0  0
   -5.6541    1.1551    8.2909 C   0  0  0  0  0  4           0  0  0
    0.0000    0.0000    0.0000 C   0  0  0  0  0  4           0  0  0
    1.7789   -2.5229    0.0147 C   0  0  0  0  0  4           0  0  0
    2.5221   -3.4043   -0.9841 C   0  0  0  0  0  4           0  0  0
    2.0555   -4.8605   -1.0057 C   0  0  0  0  0  4           0  0  0
    2.8342   -5.6833   -2.0197 C   0  0  0  0  0  4           0  0  0
  1 10  1  0     0  0
  2 11  1  0     0  0
  2 27  1  0     0  0
  3 26  1  0     0  0
  4  5  2  0     0  0
  4  6  1  0     0  0
  5  7  1  0     0  0
  6 12  1  0     0  0
  7 12  2  0     0  0
  8 13  1  0     0  0
  8 14  1  0     0  0
  8 28  1  0     0  0
  9 10  1  0     0  0
  9 13  2  0     0  0
 10 14  2  0     0  0
 11 19  1  0     0  0
 11 20  2  0     0  0
 12 15  1  0     0  0
 13 29  1  0     0  0
 14 26  1  0     0  0
 15 16  1  0     0  0
 15 21  2  0     0  0
 16 17  1  0     0  0
 16 19  2  0     0  0
 17 22  2  0     0  0
 17 23  1  0     0  0
 18 24  2  0     0  0
 18 25  1  0     0  0
 18 28  1  0     0  0
 20 21  1  0     0  0
 22 24  1  0     0  0
 23 25  2  0     0  0
 29 30  1  0     0  0
 30 31  1  0     0  0
 31 32  1  0     0  0
M  END
> <standard_type>
pIC50

> <# Confs.>
25

> <canonical_smiles>
ClC(N=C1CCCC)=C(CO)N1CC2=CC=C(C3=CC(OC)=CC=C3C4=NN=NN4)C=C2

> <standard_relation>
=

> <Publication_ID>
nan

> <predicted_activity_value>
7.102372908709558

> <actual_activity_value>
6.292429823902063

> <Compound>
12

> <standard_units>
nM

> hash
15917884378459634572

$$$$
12_
XXILIB    08252103443D 0   0.00000     0.00000

 32 35  0     1  0            999 V2000
    5.0102   -1.4826    0.0264 Cl  0  0  0  0  0  1           0  0  0
   -5.1481    1.2218    6.9571 O   0  0  0  0  0  2           0  0  0
    0.7500   -2.6181   -0.9598 O   0  0  0  0  0  2           0  0  0
    1.9814   -1.5718    5.6979 N   0  0  0  0  0  3           0  0  0
    1.6705   -2.4227    6.6661 N   0  0  0  0  0  3           0  0  0
    0.8898   -0.8116    5.5396 N   0  0  0  0  0  3           0  0  0
    0.3905   -2.2074    7.1224 N   0  0  0  0  0  3           0  0  0
    1.4520    0.0000   -0.0000 N   0  0  0  0  0  3           0  0  0
    3.5373    0.7678    0.0096 N   0  0  0  0  0  3           0  0  0
    3.5506   -0.6018    0.0167 C   0  0  0  0  0  4           0  0  0
   -3.9240    0.6056    6.8956 C   0  0  0  0  0  4           0  0  0
   -0.0877   -1.2034    6.4140 C   0  0  0  0  0  4           0  0  0
    2.2665    1.1166   -0.0000 C   0  0  0  0  0  4           0  0  0
    2.2672   -1.1152    0.0106 C   0  0  0  0  0  4           0  0  0
   -1.3930   -0.5951    6.5012 C   0  0  0  0  0  4           0  0  0
   -2.0600    0.0030    5.4047 C   0  0  0  0  0  4           0  0  0
   -1.5399    0.0011    4.0428 C   0  0  0  0  0  4           0  0  0
   -0.5416    0.0000    1.3968 C   0  0  0  0  0  4           0  0  0
   -3.3186    0.6034    5.6339 C   0  0  0  0  0  4           0  0  0
   -3.2670    0.0004    7.9619 C   0  0  0  0  0  4           0  0  0
   -2.0183   -0.5932    7.7629 C   0  0  0  0  0  4           0  0  0
   -1.2953   -1.2044    3.3685 C   0  0  0  0  0  4           0  0  0
   -1.2711    1.2057    3.3766 C   0  0  0  0  0  4           0  0  0
   -0.7995   -1.2048    2.0616 C   0  0  0  0  0  4           0  0  0
   -0.7758    1.2051    2.0697 C   0  0  0  0  0  4           0  0  0
    1.7859   -2.5132    0.0073 C   0  0  0  0  0  4           0  0  0
   -5.6541    1.1551    8.2909 C   0  0  0  0  0  4           0  0  0
    0.0000    0.0000    0.0000 C   0  0  0  0  0  4           0  0  0
    1.7789    2.5229   -0.0147 C   0  0  0  0  0  4           0  0  0
    2.5414    3.3901   -1.0112 C   0  0  0  0  0  4           0  0  0
    2.4471    2.9124   -2.4609 C   0  0  0  0  0  4           0  0  0
    3.2268    3.8178   -3.4011 C   0  0  0  0  0  4           0  0  0
  1 10  1  0     0  0
  2 11  1  0     0  0
  2 27  1  0     0  0
  3 26  1  0     0  0
  4  5  2  0     0  0
  4  6  1  0     0  0
  5  7  1  0     0  0
  6 12  1  0     0  0
  7 12  2  0     0  0
  8 13  1  0     0  0
  8 14  1  0     0  0
  8 28  1  0     0  0
  9 10  1  0     0  0
  9 13  2  0     0  0
 10 14  2  0     0  0
 11 19  1  0     0  0
 11 20  2  0     0  0
 12 15  1  0     0  0
 13 29  1  0     0  0
 14 26  1  0     0  0
 15 16  1  0     0  0
 15 21  2  0     0  0
 16 17  1  0     0  0
 16 19  2  0     0  0
 17 22  2  0     0  0
 17 23  1  0     0  0
 18 24  2  0     0  0
 18 25  1  0     0  0
 18 28  1  0     0  0
 20 21  1  0     0  0
 22 24  1  0     0  0
 23 25  2  0     0  0
 29 30  1  0     0  0
 30 31  1  0     0  0
 31 32  1  0     0  0
M  END
> <standard_type>
pIC50

> <# Confs.>
25

> <canonical_smiles>
ClC(N=C1CCCC)=C(CO)N1CC2=CC=C(C3=CC(OC)=CC=C3C4=NN=NN4)C=C2

> <standard_relation>
=

> <Publication_ID>
nan

> <predicted_activity_value>
7.102372908709558

> <actual_activity_value>
6.292429823902063

> <Compound>
12

> <standard_units>
nM

> hash
15917884378459634572

$$$$
12_
XXILIB    08252103443D 0   0.00000     0.00000

 32 35  0     1  0            999 V2000
    5.0102    1.4826   -0.0264 Cl  0  0  0  0  0  1           0  0  0
   -5.1481    1.2218    6.9571 O   0  0  0  0  0  2           0  0  0
    1.6581    2.9298    1.3453 O   0  0  0  0  0  2           0  0  0
    1.9814   -1.5718    5.6979 N   0  0  0  0  0  3           0  0  0
    1.6705   -2.4227    6.6661 N   0  0  0  0  0  3           0  0  0
    0.8898   -0.8116    5.5396 N   0  0  0  0  0  3           0  0  0
    0.3905   -2.2074    7.1224 N   0  0  0  0  0  3           0  0  0
    1.4520    0.0000    0.0000 N   0  0  0  0  0  3           0  0  0
    3.5373   -0.7678   -0.0096 N   0  0  0  0  0  3           0  0  0
    3.5506    0.6018   -0.0167 C   0  0  0  0  0  4           0  0  0
   -3.9240    0.6056    6.8956 C   0  0  0  0  0  4           0  0  0
   -0.0877   -1.2034    6.4140 C   0  0  0  0  0  4           0  0  0
    2.2665   -1.1166    0.0000 C   0  0  0  0  0  4           0  0  0
    2.2672    1.1152   -0.0106 C   0  0  0  0  0  4           0  0  0
   -1.3930   -0.5951    6.5012 C   0  0  0  0  0  4           0  0  0
   -2.0600    0.0030    5.4047 C   0  0  0  0  0  4           0  0  0
   -1.5399    0.0011    4.0428 C   0  0  0  0  0  4           0  0  0
   -0.5416    0.0000    1.3968 C   0  0  0  0  0  4           0  0  0
   -3.3186    0.6034    5.6339 C   0  0  0  0  0  4           0  0  0
   -3.2670    0.0004    7.9619 C   0  0  0  0  0  4           0  0  0
   -2.0183   -0.5932    7.7629 C   0  0  0  0  0  4           0  0  0
   -1.2953   -1.2044    3.3685 C   0  0  0  0  0  4           0  0  0
   -1.2711    1.2057    3.3766 C   0  0  0  0  0  4           0  0  0
   -0.7995   -1.2048    2.0616 C   0  0  0  0  0  4           0  0  0
   -0.7758    1.2051    2.0697 C   0  0  0  0  0  4           0  0  0
    1.7859    2.5132   -0.0073 C   0  0  0  0  0  4           0  0  0
   -5.6541    1.1551    8.2909 C   0  0  0  0  0  4           0  0  0
    0.0000    0.0000    0.0000 C   0  0  0  0  0  4           0  0  0
    1.7789   -2.5229    0.0147 C   0  0  0  0  0  4           0  0  0
    2.5414   -3.3901    1.0112 C   0  0  0  0  0  4           0  0  0
    2.0756   -4.8458    1.0625 C   0  0  0  0  0  4           0  0  0
    2.8739   -5.6543    2.0728 C   0  0  0  0  0  4           0  0  0
  1 10  1  0     0  0
  2 11  1  0     0  0
  2 27  1  0     0  0
  3 26  1  0     0  0
  4  5  2  0     0  0
  4  6  1  0     0  0
  5  7  1  0     0  0
  6 12  1  0     0  0
  7 12  2  0     0  0
  8 13  1  0     0  0
  8 14  1  0     0  0
  8 28  1  0     0  0
  9 10  1  0     0  0
  9 13  2  0     0  0
 10 14  2  0     0  0
 11 19  1  0     0  0
 11 20  2  0     0  0
 12 15  1  0     0  0
 13 29  1  0     0  0
 14 26  1  0     0  0
 15 16  1  0     0  0
 15 21  2  0     0  0
 16 17  1  0     0  0
 16 19  2  0     0  0
 17 22  2  0     0  0
 17 23  1  0     0  0
 18 24  2  0     0  0
 18 25  1  0     0  0
 18 28  1  0     0  0
 20 21  1  0     0  0
 22 24  1  0     0  0
 23 25  2  0     0  0
 29 30  1  0     0  0
 30 31  1  0     0  0
 31 32  1  0     0  0
M  END
> <standard_type>
pIC50

> <# Confs.>
25

> <canonical_smiles>
ClC(N=C1CCCC)=C(CO)N1CC2=CC=C(C3=CC(OC)=CC=C3C4=NN=NN4)C=C2

> <standard_relation>
=

> <Publication_ID>
nan

> <predicted_activity_value>
7.102372908709558

> <actual_activity_value>
6.292429823902063

> <Compound>
12

> <standard_units>
nM

> hash
15917884378459634572

$$$$
12_
XXILIB    08252103443D 0   0.00000     0.00000

 32 35  0     1  0            999 V2000
    5.0102   -1.4826    0.0264 Cl  0  0  0  0  0  1           0  0  0
   -5.1481    1.2218    6.9571 O   0  0  0  0  0  2           0  0  0
    0.7500   -2.6181   -0.9598 O   0  0  0  0  0  2           0  0  0
    1.9814   -1.5718    5.6979 N   0  0  0  0  0  3           0  0  0
    1.6705   -2.4227    6.6661 N   0  0  0  0  0  3           0  0  0
    0.8898   -0.8116    5.5396 N   0  0  0  0  0  3           0  0  0
    0.3905   -2.2074    7.1224 N   0  0  0  0  0  3           0  0  0
    1.4520    0.0000   -0.0000 N   0  0  0  0  0  3           0  0  0
    3.5373    0.7678    0.0096 N   0  0  0  0  0  3           0  0  0
    3.5506   -0.6018    0.0167 C   0  0  0  0  0  4           0  0  0
   -3.9240    0.6056    6.8956 C   0  0  0  0  0  4           0  0  0
   -0.0877   -1.2034    6.4140 C   0  0  0  0  0  4           0  0  0
    2.2665    1.1166   -0.0000 C   0  0  0  0  0  4           0  0  0
    2.2672   -1.1152    0.0106 C   0  0  0  0  0  4           0  0  0
   -1.3930   -0.5951    6.5012 C   0  0  0  0  0  4           0  0  0
   -2.0600    0.0030    5.4047 C   0  0  0  0  0  4           0  0  0
   -1.5399    0.0011    4.0428 C   0  0  0  0  0  4           0  0  0
   -0.5416    0.0000    1.3968 C   0  0  0  0  0  4           0  0  0
   -3.3186    0.6034    5.6339 C   0  0  0  0  0  4           0  0  0
   -3.2670    0.0004    7.9619 C   0  0  0  0  0  4           0  0  0
   -2.0183   -0.5932    7.7629 C   0  0  0  0  0  4           0  0  0
   -1.2953   -1.2044    3.3685 C   0  0  0  0  0  4           0  0  0
   -1.2711    1.2057    3.3766 C   0  0  0  0  0  4           0  0  0
   -0.7995   -1.2048    2.0616 C   0  0  0  0  0  4           0  0  0
   -0.7758    1.2051    2.0697 C   0  0  0  0  0  4           0  0  0
    1.7859   -2.5132    0.0073 C   0  0  0  0  0  4           0  0  0
   -5.6541    1.1551    8.2909 C   0  0  0  0  0  4           0  0  0
    0.0000    0.0000    0.0000 C   0  0  0  0  0  4           0  0  0
    1.7789    2.5229   -0.0147 C   0  0  0  0  0  4           0  0  0
    2.5414    3.3901   -1.0112 C   0  0  0  0  0  4           0  0  0
    2.0756    4.8458   -1.0625 C   0  0  0  0  0  4           0  0  0
    2.8739    5.6543   -2.0728 C   0  0  0  0  0  4           0  0  0
  1 10  1  0     0  0
  2 11  1  0     0  0
  2 27  1  0     0  0
  3 26  1  0     0  0
  4  5  2  0     0  0
  4  6  1  0     0  0
  5  7  1  0     0  0
  6 12  1  0     0  0
  7 12  2  0     0  0
  8 13  1  0     0  0
  8 14  1  0     0  0
  8 28  1  0     0  0
  9 10  1  0     0  0
  9 13  2  0     0  0
 10 14  2  0     0  0
 11 19  1  0     0  0
 11 20  2  0     0  0
 12 15  1  0     0  0
 13 29  1  0     0  0
 14 26  1  0     0  0
 15 16  1  0     0  0
 15 21  2  0     0  0
 16 17  1  0     0  0
 16 19  2  0     0  0
 17 22  2  0     0  0
 17 23  1  0     0  0
 18 24  2  0     0  0
 18 25  1  0     0  0
 18 28  1  0     0  0
 20 21  1  0     0  0
 22 24  1  0     0  0
 23 25  2  0     0  0
 29 30  1  0     0  0
 30 31  1  0     0  0
 31 32  1  0     0  0
M  END
> <standard_type>
pIC50

> <# Confs.>
25

> <canonical_smiles>
ClC(N=C1CCCC)=C(CO)N1CC2=CC=C(C3=CC(OC)=CC=C3C4=NN=NN4)C=C2

> <standard_relation>
=

> <Publication_ID>
nan

> <predicted_activity_value>
7.102372908709558

> <actual_activity_value>
6.292429823902063

> <Compound>
12

> <standard_units>
nM

> hash
15917884378459634572

$$$$
12_
XXILIB    08252103443D 0   0.00000     0.00000

 32 35  0     1  0            999 V2000
    5.0102    1.4826   -0.0264 Cl  0  0  0  0  0  1           0  0  0
   -5.1481    1.2218    6.9571 O   0  0  0  0  0  2           0  0  0
    1.6581    2.9298    1.3453 O   0  0  0  0  0  2           0  0  0
    1.9814   -1.5718    5.6979 N   0  0  0  0  0  3           0  0  0
    1.6705   -2.4227    6.6661 N   0  0  0  0  0  3           0  0  0
    0.8898   -0.8116    5.5396 N   0  0  0  0  0  3           0  0  0
    0.3905   -2.2074    7.1224 N   0  0  0  0  0  3           0  0  0
    1.4520    0.0000    0.0000 N   0  0  0  0  0  3           0  0  0
    3.5373   -0.7678   -0.0096 N   0  0  0  0  0  3           0  0  0
    3.5506    0.6018   -0.0167 C   0  0  0  0  0  4           0  0  0
   -3.9240    0.6056    6.8956 C   0  0  0  0  0  4           0  0  0
   -0.0877   -1.2034    6.4140 C   0  0  0  0  0  4           0  0  0
    2.2665   -1.1166    0.0000 C   0  0  0  0  0  4           0  0  0
    2.2672    1.1152   -0.0106 C   0  0  0  0  0  4           0  0  0
   -1.3930   -0.5951    6.5012 C   0  0  0  0  0  4           0  0  0
   -2.0600    0.0030    5.4047 C   0  0  0  0  0  4           0  0  0
   -1.5399    0.0011    4.0428 C   0  0  0  0  0  4           0  0  0
   -0.5416    0.0000    1.3968 C   0  0  0  0  0  4           0  0  0
   -3.3186    0.6034    5.6339 C   0  0  0  0  0  4           0  0  0
   -3.2670    0.0004    7.9619 C   0  0  0  0  0  4           0  0  0
   -2.0183   -0.5932    7.7629 C   0  0  0  0  0  4           0  0  0
   -1.2953   -1.2044    3.3685 C   0  0  0  0  0  4           0  0  0
   -1.2711    1.2057    3.3766 C   0  0  0  0  0  4           0  0  0
   -0.7995   -1.2048    2.0616 C   0  0  0  0  0  4           0  0  0
   -0.7758    1.2051    2.0697 C   0  0  0  0  0  4           0  0  0
    1.7859    2.5132   -0.0073 C   0  0  0  0  0  4           0  0  0
   -5.6541    1.1551    8.2909 C   0  0  0  0  0  4           0  0  0
    0.0000    0.0000    0.0000 C   0  0  0  0  0  4           0  0  0
    1.7789   -2.5229    0.0147 C   0  0  0  0  0  4           0  0  0
    2.5414   -3.3901    1.0112 C   0  0  0  0  0  4           0  0  0
    2.4471   -2.9124    2.4609 C   0  0  0  0  0  4           0  0  0
    3.2268   -3.8178    3.4011 C   0  0  0  0  0  4           0  0  0
  1 10  1  0     0  0
  2 11  1  0     0  0
  2 27  1  0     0  0
  3 26  1  0     0  0
  4  5  2  0     0  0
  4  6  1  0     0  0
  5  7  1  0     0  0
  6 12  1  0     0  0
  7 12  2  0     0  0
  8 13  1  0     0  0
  8 14  1  0     0  0
  8 28  1  0     0  0
  9 10  1  0     0  0
  9 13  2  0     0  0
 10 14  2  0     0  0
 11 19  1  0     0  0
 11 20  2  0     0  0
 12 15  1  0     0  0
 13 29  1  0     0  0
 14 26  1  0     0  0
 15 16  1  0     0  0
 15 21  2  0     0  0
 16 17  1  0     0  0
 16 19  2  0     0  0
 17 22  2  0     0  0
 17 23  1  0     0  0
 18 24  2  0     0  0
 18 25  1  0     0  0
 18 28  1  0     0  0
 20 21  1  0     0  0
 22 24  1  0     0  0
 23 25  2  0     0  0
 29 30  1  0     0  0
 30 31  1  0     0  0
 31 32  1  0     0  0
M  END
> <standard_type>
pIC50

> <# Confs.>
25

> <canonical_smiles>
ClC(N=C1CCCC)=C(CO)N1CC2=CC=C(C3=CC(OC)=CC=C3C4=NN=NN4)C=C2

> <standard_relation>
=

> <Publication_ID>
nan

> <predicted_activity_value>
7.102372908709558

> <actual_activity_value>
6.292429823902063

> <Compound>
12

> <standard_units>
nM

> hash
15917884378459634572

$$$$
12_
XXILIB    08252103443D 0   0.00000     0.00000

 32 35  0     1  0            999 V2000
    5.0102    1.4826   -0.0264 Cl  0  0  0  0  0  1           0  0  0
   -0.8977    1.4173    8.5798 O   0  0  0  0  0  2           0  0  0
    1.6581    2.9298    1.3453 O   0  0  0  0  0  2           0  0  0
   -5.4389   -1.6895    3.0969 N   0  0  0  0  0  3           0  0  0
   -5.3506   -2.7765    3.8511 N   0  0  0  0  0  3           0  0  0
   -4.6927   -0.7703    3.7236 N   0  0  0  0  0  3           0  0  0
   -4.5541   -2.5530    4.9505 N   0  0  0  0  0  3           0  0  0
    1.4520    0.0000    0.0000 N   0  0  0  0  0  3           0  0  0
    3.5373   -0.7678   -0.0096 N   0  0  0  0  0  3           0  0  0
    3.5506    0.6018   -0.0167 C   0  0  0  0  0  4           0  0  0
   -1.7434    0.7532    7.7280 C   0  0  0  0  0  4           0  0  0
   -4.1504   -1.3009    4.8629 C   0  0  0  0  0  4           0  0  0
    2.2665   -1.1166    0.0000 C   0  0  0  0  0  4           0  0  0
    2.2672    1.1152   -0.0106 C   0  0  0  0  0  4           0  0  0
   -3.2989   -0.5748    5.7734 C   0  0  0  0  0  4           0  0  0
   -2.0600    0.0030    5.4047 C   0  0  0  0  0  4           0  0  0
   -1.5399    0.0011    4.0428 C   0  0  0  0  0  4           0  0  0
   -0.5416    0.0000    1.3968 C   0  0  0  0  0  4           0  0  0
   -1.3003    0.6515    6.4044 C   0  0  0  0  0  4           0  0  0
   -2.9699    0.1962    8.0751 C   0  0  0  0  0  4           0  0  0
   -3.7361   -0.4570    7.1068 C   0  0  0  0  0  4           0  0  0
   -1.2953   -1.2044    3.3685 C   0  0  0  0  0  4           0  0  0
   -1.2711    1.2057    3.3766 C   0  0  0  0  0  4           0  0  0
   -0.7995   -1.2048    2.0616 C   0  0  0  0  0  4           0  0  0
   -0.7758    1.2051    2.0697 C   0  0  0  0  0  4           0  0  0
    1.7859    2.5132   -0.0073 C   0  0  0  0  0  4           0  0  0
   -1.4634    1.4508    9.8907 C   0  0  0  0  0  4           0  0  0
    0.0000   -0.0000    0.0000 C   0  0  0  0  0  4           0  0  0
    1.7789   -2.5229    0.0147 C   0  0  0  0  0  4           0  0  0
    2.5221   -3.4043   -0.9841 C   0  0  0  0  0  4           0  0  0
    2.3995   -2.9470   -2.4382 C   0  0  0  0  0  4           0  0  0
    3.1610   -3.8658   -3.3805 C   0  0  0  0  0  4           0  0  0
  1 10  1  0     0  0
  2 11  1  0     0  0
  2 27  1  0     0  0
  3 26  1  0     0  0
  4  5  2  0     0  0
  4  6  1  0     0  0
  5  7  1  0     0  0
  6 12  1  0     0  0
  7 12  2  0     0  0
  8 13  1  0     0  0
  8 14  1  0     0  0
  8 28  1  0     0  0
  9 10  1  0     0  0
  9 13  2  0     0  0
 10 14  2  0     0  0
 11 19  1  0     0  0
 11 20  2  0     0  0
 12 15  1  0     0  0
 13 29  1  0     0  0
 14 26  1  0     0  0
 15 16  1  0     0  0
 15 21  2  0     0  0
 16 17  1  0     0  0
 16 19  2  0     0  0
 17 22  2  0     0  0
 17 23  1  0     0  0
 18 24  2  0     0  0
 18 25  1  0     0  0
 18 28  1  0     0  0
 20 21  1  0     0  0
 22 24  1  0     0  0
 23 25  2  0     0  0
 29 30  1  0     0  0
 30 31  1  0     0  0
 31 32  1  0     0  0
M  END
> <standard_type>
pIC50

> <# Confs.>
25

> <canonical_smiles>
ClC(N=C1CCCC)=C(CO)N1CC2=CC=C(C3=CC(OC)=CC=C3C4=NN=NN4)C=C2

> <standard_relation>
=

> <Publication_ID>
nan

> <predicted_activity_value>
7.102372908709558

> <actual_activity_value>
6.292429823902063

> <Compound>
12

> <standard_units>
nM

> hash
15917884378459634572

$$$$
12_
XXILIB    08252103443D 0   0.00000     0.00000

 32 35  0     1  0            999 V2000
    5.0102    1.4826   -0.0264 Cl  0  0  0  0  0  1           0  0  0
   -0.8977    1.4173    8.5798 O   0  0  0  0  0  2           0  0  0
    1.6581    2.9298    1.3453 O   0  0  0  0  0  2           0  0  0
   -5.4389   -1.6895    3.0969 N   0  0  0  0  0  3           0  0  0
   -5.3506   -2.7765    3.8511 N   0  0  0  0  0  3           0  0  0
   -4.6927   -0.7703    3.7236 N   0  0  0  0  0  3           0  0  0
   -4.5541   -2.5530    4.9505 N   0  0  0  0  0  3           0  0  0
    1.4520    0.0000    0.0000 N   0  0  0  0  0  3           0  0  0
    3.5373   -0.7678   -0.0096 N   0  0  0  0  0  3           0  0  0
    3.5506    0.6018   -0.0167 C   0  0  0  0  0  4           0  0  0
   -1.7434    0.7532    7.7280 C   0  0  0  0  0  4           0  0  0
   -4.1504   -1.3009    4.8629 C   0  0  0  0  0  4           0  0  0
    2.2665   -1.1166    0.0000 C   0  0  0  0  0  4           0  0  0
    2.2672    1.1152   -0.0106 C   0  0  0  0  0  4           0  0  0
   -3.2989   -0.5748    5.7734 C   0  0  0  0  0  4           0  0  0
   -2.0600    0.0030    5.4047 C   0  0  0  0  0  4           0  0  0
   -1.5399    0.0011    4.0428 C   0  0  0  0  0  4           0  0  0
   -0.5416    0.0000    1.3968 C   0  0  0  0  0  4           0  0  0
   -1.3003    0.6515    6.4044 C   0  0  0  0  0  4           0  0  0
   -2.9699    0.1962    8.0751 C   0  0  0  0  0  4           0  0  0
   -3.7361   -0.4570    7.1068 C   0  0  0  0  0  4           0  0  0
   -1.2953   -1.2044    3.3685 C   0  0  0  0  0  4           0  0  0
   -1.2711    1.2057    3.3766 C   0  0  0  0  0  4           0  0  0
   -0.7995   -1.2048    2.0616 C   0  0  0  0  0  4           0  0  0
   -0.7758    1.2051    2.0697 C   0  0  0  0  0  4           0  0  0
    1.7859    2.5132   -0.0073 C   0  0  0  0  0  4           0  0  0
   -1.4634    1.4508    9.8907 C   0  0  0  0  0  4           0  0  0
    0.0000   -0.0000    0.0000 C   0  0  0  0  0  4           0  0  0
    1.7789   -2.5229    0.0147 C   0  0  0  0  0  4           0  0  0
    2.5221   -3.4043   -0.9841 C   0  0  0  0  0  4           0  0  0
    2.0555   -4.8605   -1.0057 C   0  0  0  0  0  4           0  0  0
    2.8342   -5.6833   -2.0197 C   0  0  0  0  0  4           0  0  0
  1 10  1  0     0  0
  2 11  1  0     0  0
  2 27  1  0     0  0
  3 26  1  0     0  0
  4  5  2  0     0  0
  4  6  1  0     0  0
  5  7  1  0     0  0
  6 12  1  0     0  0
  7 12  2  0     0  0
  8 13  1  0     0  0
  8 14  1  0     0  0
  8 28  1  0     0  0
  9 10  1  0     0  0
  9 13  2  0     0  0
 10 14  2  0     0  0
 11 19  1  0     0  0
 11 20  2  0     0  0
 12 15  1  0     0  0
 13 29  1  0     0  0
 14 26  1  0     0  0
 15 16  1  0     0  0
 15 21  2  0     0  0
 16 17  1  0     0  0
 16 19  2  0     0  0
 17 22  2  0     0  0
 17 23  1  0     0  0
 18 24  2  0     0  0
 18 25  1  0     0  0
 18 28  1  0     0  0
 20 21  1  0     0  0
 22 24  1  0     0  0
 23 25  2  0     0  0
 29 30  1  0     0  0
 30 31  1  0     0  0
 31 32  1  0     0  0
M  END
> <standard_type>
pIC50

> <# Confs.>
25

> <canonical_smiles>
ClC(N=C1CCCC)=C(CO)N1CC2=CC=C(C3=CC(OC)=CC=C3C4=NN=NN4)C=C2

> <standard_relation>
=

> <Publication_ID>
nan

> <predicted_activity_value>
7.102372908709558

> <actual_activity_value>
6.292429823902063

> <Compound>
12

> <standard_units>
nM

> hash
15917884378459634572

$$$$
12_
XXILIB    08252103443D 0   0.00000     0.00000

 32 35  0     1  0            999 V2000
    5.0102   -1.4826    0.0264 Cl  0  0  0  0  0  1           0  0  0
   -5.1481    1.2218    6.9571 O   0  0  0  0  0  2           0  0  0
    0.7500   -2.6181   -0.9598 O   0  0  0  0  0  2           0  0  0
    1.9814   -1.5718    5.6979 N   0  0  0  0  0  3           0  0  0
    1.6705   -2.4227    6.6661 N   0  0  0  0  0  3           0  0  0
    0.8898   -0.8116    5.5396 N   0  0  0  0  0  3           0  0  0
    0.3905   -2.2074    7.1224 N   0  0  0  0  0  3           0  0  0
    1.4520    0.0000    0.0000 N   0  0  0  0  0  3           0  0  0
    3.5373    0.7678    0.0096 N   0  0  0  0  0  3           0  0  0
    3.5506   -0.6018    0.0167 C   0  0  0  0  0  4           0  0  0
   -3.9240    0.6056    6.8956 C   0  0  0  0  0  4           0  0  0
   -0.0877   -1.2034    6.4140 C   0  0  0  0  0  4           0  0  0
    2.2665    1.1166    0.0000 C   0  0  0  0  0  4           0  0  0
    2.2672   -1.1152    0.0106 C   0  0  0  0  0  4           0  0  0
   -1.3930   -0.5951    6.5012 C   0  0  0  0  0  4           0  0  0
   -2.0600    0.0030    5.4047 C   0  0  0  0  0  4           0  0  0
   -1.5399    0.0011    4.0428 C   0  0  0  0  0  4           0  0  0
   -0.5416    0.0000    1.3968 C   0  0  0  0  0  4           0  0  0
   -3.3186    0.6034    5.6339 C   0  0  0  0  0  4           0  0  0
   -3.2670    0.0004    7.9619 C   0  0  0  0  0  4           0  0  0
   -2.0183   -0.5932    7.7629 C   0  0  0  0  0  4           0  0  0
   -1.2953   -1.2044    3.3685 C   0  0  0  0  0  4           0  0  0
   -1.2711    1.2057    3.3766 C   0  0  0  0  0  4           0  0  0
   -0.7995   -1.2048    2.0616 C   0  0  0  0  0  4           0  0  0
   -0.7758    1.2051    2.0697 C   0  0  0  0  0  4           0  0  0
    1.7859   -2.5132    0.0073 C   0  0  0  0  0  4           0  0  0
   -5.6541    1.1551    8.2909 C   0  0  0  0  0  4           0  0  0
    0.0000    0.0000    0.0000 C   0  0  0  0  0  4           0  0  0
    1.7789    2.5229   -0.0147 C   0  0  0  0  0  4           0  0  0
    2.5221    3.4043    0.9841 C   0  0  0  0  0  4           0  0  0
    2.3995    2.9470    2.4382 C   0  0  0  0  0  4           0  0  0
    3.1610    3.8658    3.3805 C   0  0  0  0  0  4           0  0  0
  1 10  1  0     0  0
  2 11  1  0     0  0
  2 27  1  0     0  0
  3 26  1  0     0  0
  4  5  2  0     0  0
  4  6  1  0     0  0
  5  7  1  0     0  0
  6 12  1  0     0  0
  7 12  2  0     0  0
  8 13  1  0     0  0
  8 14  1  0     0  0
  8 28  1  0     0  0
  9 10  1  0     0  0
  9 13  2  0     0  0
 10 14  2  0     0  0
 11 19  1  0     0  0
 11 20  2  0     0  0
 12 15  1  0     0  0
 13 29  1  0     0  0
 14 26  1  0     0  0
 15 16  1  0     0  0
 15 21  2  0     0  0
 16 17  1  0     0  0
 16 19  2  0     0  0
 17 22  2  0     0  0
 17 23  1  0     0  0
 18 24  2  0     0  0
 18 25  1  0     0  0
 18 28  1  0     0  0
 20 21  1  0     0  0
 22 24  1  0     0  0
 23 25  2  0     0  0
 29 30  1  0     0  0
 30 31  1  0     0  0
 31 32  1  0     0  0
M  END
> <standard_type>
pIC50

> <# Confs.>
25

> <canonical_smiles>
ClC(N=C1CCCC)=C(CO)N1CC2=CC=C(C3=CC(OC)=CC=C3C4=NN=NN4)C=C2

> <standard_relation>
=

> <Publication_ID>
nan

> <predicted_activity_value>
7.102372908709558

> <actual_activity_value>
6.292429823902063

> <Compound>
12

> <standard_units>
nM

> hash
15917884378459634572

$$$$
12_
XXILIB    08252103443D 0   0.00000     0.00000

 32 35  0     1  0            999 V2000
    5.0102    1.4826   -0.0264 Cl  0  0  0  0  0  1           0  0  0
   -0.5168    0.1191    8.7270 O   0  0  0  0  0  2           0  0  0
    1.6581    2.9298    1.3453 O   0  0  0  0  0  2           0  0  0
   -5.7298    0.5270    2.9828 N   0  0  0  0  0  3           0  0  0
   -6.1936   -0.5900    3.5263 N   0  0  0  0  0  3           0  0  0
   -4.6699    0.8628    3.7300 N   0  0  0  0  0  3           0  0  0
   -5.4357   -0.9644    4.6117 N   0  0  0  0  0  3           0  0  0
    1.4520    0.0000    0.0000 N   0  0  0  0  0  3           0  0  0
    3.5373   -0.7678   -0.0096 N   0  0  0  0  0  3           0  0  0
    3.5506    0.6018   -0.0167 C   0  0  0  0  0  4           0  0  0
   -1.5353    0.0908    7.8084 C   0  0  0  0  0  4           0  0  0
   -4.4904   -0.0530    4.7314 C   0  0  0  0  0  4           0  0  0
    2.2665   -1.1166    0.0000 C   0  0  0  0  0  4           0  0  0
    2.2672    1.1152   -0.0106 C   0  0  0  0  0  4           0  0  0
   -3.4406    0.0157    5.7185 C   0  0  0  0  0  4           0  0  0
   -2.0600    0.0030    5.4047 C   0  0  0  0  0  4           0  0  0
   -1.5399    0.0011    4.0428 C   0  0  0  0  0  4           0  0  0
   -0.5416    0.0000    1.3968 C   0  0  0  0  0  4           0  0  0
   -1.1315    0.0316    6.4697 C   0  0  0  0  0  4           0  0  0
   -2.8942    0.1196    8.1041 C   0  0  0  0  0  4           0  0  0
   -3.8320    0.0844    7.0695 C   0  0  0  0  0  4           0  0  0
   -1.2953   -1.2044    3.3685 C   0  0  0  0  0  4           0  0  0
   -1.2711    1.2057    3.3766 C   0  0  0  0  0  4           0  0  0
   -0.7995   -1.2048    2.0616 C   0  0  0  0  0  4           0  0  0
   -0.7758    1.2051    2.0697 C   0  0  0  0  0  4           0  0  0
    1.7859    2.5132   -0.0073 C   0  0  0  0  0  4           0  0  0
   -1.0600    0.1788   10.0464 C   0  0  0  0  0  4           0  0  0
    0.0000    0.0000   -0.0000 C   0  0  0  0  0  4           0  0  0
    1.7789   -2.5229    0.0147 C   0  0  0  0  0  4           0  0  0
    2.5221   -3.4043   -0.9841 C   0  0  0  0  0  4           0  0  0
    2.3995   -2.9470   -2.4382 C   0  0  0  0  0  4           0  0  0
    3.1610   -3.8658   -3.3805 C   0  0  0  0  0  4           0  0  0
  1 10  1  0     0  0
  2 11  1  0     0  0
  2 27  1  0     0  0
  3 26  1  0     0  0
  4  5  2  0     0  0
  4  6  1  0     0  0
  5  7  1  0     0  0
  6 12  1  0     0  0
  7 12  2  0     0  0
  8 13  1  0     0  0
  8 14  1  0     0  0
  8 28  1  0     0  0
  9 10  1  0     0  0
  9 13  2  0     0  0
 10 14  2  0     0  0
 11 19  1  0     0  0
 11 20  2  0     0  0
 12 15  1  0     0  0
 13 29  1  0     0  0
 14 26  1  0     0  0
 15 16  1  0     0  0
 15 21  2  0     0  0
 16 17  1  0     0  0
 16 19  2  0     0  0
 17 22  2  0     0  0
 17 23  1  0     0  0
 18 24  2  0     0  0
 18 25  1  0     0  0
 18 28  1  0     0  0
 20 21  1  0     0  0
 22 24  1  0     0  0
 23 25  2  0     0  0
 29 30  1  0     0  0
 30 31  1  0     0  0
 31 32  1  0     0  0
M  END
> <standard_type>
pIC50

> <# Confs.>
25

> <canonical_smiles>
ClC(N=C1CCCC)=C(CO)N1CC2=CC=C(C3=CC(OC)=CC=C3C4=NN=NN4)C=C2

> <standard_relation>
=

> <Publication_ID>
nan

> <predicted_activity_value>
7.102372908709558

> <actual_activity_value>
6.292429823902063

> <Compound>
12

> <standard_units>
nM

> hash
15917884378459634572

$$$$
12_
XXILIB    08252103443D 0   0.00000     0.00000

 32 35  0     1  0            999 V2000
    5.0102   -1.4826    0.0264 Cl  0  0  0  0  0  1           0  0  0
   -2.3175   -2.4794    8.0548 O   0  0  0  0  0  2           0  0  0
    1.6581   -2.9298   -1.3453 O   0  0  0  0  0  2           0  0  0
   -3.5850    3.9014    3.8439 N   0  0  0  0  0  3           0  0  0
   -2.7986    4.4979    4.7293 N   0  0  0  0  0  3           0  0  0
   -3.6225    2.6169    4.2224 N   0  0  0  0  0  3           0  0  0
   -2.3379    3.6014    5.6657 N   0  0  0  0  0  3           0  0  0
    1.4520    0.0000   -0.0000 N   0  0  0  0  0  3           0  0  0
    3.5373    0.7678    0.0096 N   0  0  0  0  0  3           0  0  0
    3.5506   -0.6018    0.0167 C   0  0  0  0  0  4           0  0  0
   -2.4683   -1.2524    7.4601 C   0  0  0  0  0  4           0  0  0
   -2.8552    2.4329    5.3408 C   0  0  0  0  0  4           0  0  0
    2.2665    1.1166   -0.0000 C   0  0  0  0  0  4           0  0  0
    2.2672   -1.1152    0.0106 C   0  0  0  0  0  4           0  0  0
   -2.6746    1.1645    6.0042 C   0  0  0  0  0  4           0  0  0
   -2.1152    0.0216    5.3833 C   0  0  0  0  0  4           0  0  0
   -1.5819    0.0175    4.0265 C   0  0  0  0  0  4           0  0  0
   -0.5416   -0.0000    1.3968 C   0  0  0  0  0  4           0  0  0
   -2.0338   -1.1742    6.1321 C   0  0  0  0  0  4           0  0  0
   -3.0009   -0.1186    8.0651 C   0  0  0  0  0  4           0  0  0
   -3.0993    1.0735    7.3437 C   0  0  0  0  0  4           0  0  0
   -0.5175    0.8588    3.6701 C   0  0  0  0  0  4           0  0  0
   -2.1228   -0.8274    3.0463 C   0  0  0  0  0  4           0  0  0
   -0.0052    0.8519    2.3697 C   0  0  0  0  0  4           0  0  0
   -1.6100   -0.8345    1.7462 C   0  0  0  0  0  4           0  0  0
    1.7859   -2.5132    0.0073 C   0  0  0  0  0  4           0  0  0
   -2.7962   -2.4248    9.3992 C   0  0  0  0  0  4           0  0  0
    0.0000    0.0000   -0.0000 C   0  0  0  0  0  4           0  0  0
    1.7789    2.5229   -0.0147 C   0  0  0  0  0  4           0  0  0
    2.5414    3.3901   -1.0112 C   0  0  0  0  0  4           0  0  0
    2.4471    2.9124   -2.4609 C   0  0  0  0  0  4           0  0  0
    3.2268    3.8178   -3.4011 C   0  0  0  0  0  4           0  0  0
  1 10  1  0     0  0
  2 11  1  0     0  0
  2 27  1  0     0  0
  3 26  1  0     0  0
  4  5  2  0     0  0
  4  6  1  0     0  0
  5  7  1  0     0  0
  6 12  1  0     0  0
  7 12  2  0     0  0
  8 13  1  0     0  0
  8 14  1  0     0  0
  8 28  1  0     0  0
  9 10  1  0     0  0
  9 13  2  0     0  0
 10 14  2  0     0  0
 11 19  1  0     0  0
 11 20  2  0     0  0
 12 15  1  0     0  0
 13 29  1  0     0  0
 14 26  1  0     0  0
 15 16  1  0     0  0
 15 21  2  0     0  0
 16 17  1  0     0  0
 16 19  2  0     0  0
 17 22  2  0     0  0
 17 23  1  0     0  0
 18 24  2  0     0  0
 18 25  1  0     0  0
 18 28  1  0     0  0
 20 21  1  0     0  0
 22 24  1  0     0  0
 23 25  2  0     0  0
 29 30  1  0     0  0
 30 31  1  0     0  0
 31 32  1  0     0  0
M  END
> <standard_type>
pIC50

> <# Confs.>
25

> <canonical_smiles>
ClC(N=C1CCCC)=C(CO)N1CC2=CC=C(C3=CC(OC)=CC=C3C4=NN=NN4)C=C2

> <standard_relation>
=

> <Publication_ID>
nan

> <predicted_activity_value>
7.102372908709558

> <actual_activity_value>
6.292429823902063

> <Compound>
12

> <standard_units>
nM

> hash
15917884378459634572

$$$$
12_
XXILIB    08252103443D 0   0.00000     0.00000

 32 35  0     1  0            999 V2000
    5.0102   -1.4826    0.0264 Cl  0  0  0  0  0  1           0  0  0
   -0.8977    1.4173    8.5798 O   0  0  0  0  0  2           0  0  0
    0.7500   -2.6181   -0.9598 O   0  0  0  0  0  2           0  0  0
   -5.4389   -1.6895    3.0969 N   0  0  0  0  0  3           0  0  0
   -5.3506   -2.7765    3.8511 N   0  0  0  0  0  3           0  0  0
   -4.6927   -0.7703    3.7236 N   0  0  0  0  0  3           0  0  0
   -4.5541   -2.5530    4.9505 N   0  0  0  0  0  3           0  0  0
    1.4520    0.0000   -0.0000 N   0  0  0  0  0  3           0  0  0
    3.5373    0.7678    0.0096 N   0  0  0  0  0  3           0  0  0
    3.5506   -0.6018    0.0167 C   0  0  0  0  0  4           0  0  0
   -1.7434    0.7532    7.7280 C   0  0  0  0  0  4           0  0  0
   -4.1504   -1.3009    4.8629 C   0  0  0  0  0  4           0  0  0
    2.2665    1.1166   -0.0000 C   0  0  0  0  0  4           0  0  0
    2.2672   -1.1152    0.0106 C   0  0  0  0  0  4           0  0  0
   -3.2989   -0.5748    5.7734 C   0  0  0  0  0  4           0  0  0
   -2.0600    0.0030    5.4047 C   0  0  0  0  0  4           0  0  0
   -1.5399    0.0011    4.0428 C   0  0  0  0  0  4           0  0  0
   -0.5416    0.0000    1.3968 C   0  0  0  0  0  4           0  0  0
   -1.3003    0.6515    6.4044 C   0  0  0  0  0  4           0  0  0
   -2.9699    0.1962    8.0751 C   0  0  0  0  0  4           0  0  0
   -3.7361   -0.4570    7.1068 C   0  0  0  0  0  4           0  0  0
   -1.2953   -1.2044    3.3685 C   0  0  0  0  0  4           0  0  0
   -1.2711    1.2057    3.3766 C   0  0  0  0  0  4           0  0  0
   -0.7995   -1.2048    2.0616 C   0  0  0  0  0  4           0  0  0
   -0.7758    1.2051    2.0697 C   0  0  0  0  0  4           0  0  0
    1.7859   -2.5132    0.0073 C   0  0  0  0  0  4           0  0  0
   -1.4634    1.4508    9.8907 C   0  0  0  0  0  4           0  0  0
    0.0000   -0.0000    0.0000 C   0  0  0  0  0  4           0  0  0
    1.7789    2.5229   -0.0147 C   0  0  0  0  0  4           0  0  0
    2.5414    3.3901   -1.0112 C   0  0  0  0  0  4           0  0  0
    2.4471    2.9124   -2.4609 C   0  0  0  0  0  4           0  0  0
    3.2268    3.8178   -3.4011 C   0  0  0  0  0  4           0  0  0
  1 10  1  0     0  0
  2 11  1  0     0  0
  2 27  1  0     0  0
  3 26  1  0     0  0
  4  5  2  0     0  0
  4  6  1  0     0  0
  5  7  1  0     0  0
  6 12  1  0     0  0
  7 12  2  0     0  0
  8 13  1  0     0  0
  8 14  1  0     0  0
  8 28  1  0     0  0
  9 10  1  0     0  0
  9 13  2  0     0  0
 10 14  2  0     0  0
 11 19  1  0     0  0
 11 20  2  0     0  0
 12 15  1  0     0  0
 13 29  1  0     0  0
 14 26  1  0     0  0
 15 16  1  0     0  0
 15 21  2  0     0  0
 16 17  1  0     0  0
 16 19  2  0     0  0
 17 22  2  0     0  0
 17 23  1  0     0  0
 18 24  2  0     0  0
 18 25  1  0     0  0
 18 28  1  0     0  0
 20 21  1  0     0  0
 22 24  1  0     0  0
 23 25  2  0     0  0
 29 30  1  0     0  0
 30 31  1  0     0  0
 31 32  1  0     0  0
M  END
> <standard_type>
pIC50

> <# Confs.>
25

> <canonical_smiles>
ClC(N=C1CCCC)=C(CO)N1CC2=CC=C(C3=CC(OC)=CC=C3C4=NN=NN4)C=C2

> <standard_relation>
=

> <Publication_ID>
nan

> <predicted_activity_value>
7.102372908709558

> <actual_activity_value>
6.292429823902063

> <Compound>
12

> <standard_units>
nM

> hash
15917884378459634572

$$$$
12_
XXILIB    08252103443D 0   0.00000     0.00000

 32 35  0     1  0            999 V2000
    5.0102    1.4826   -0.0264 Cl  0  0  0  0  0  1           0  0  0
   -0.5168    0.1191    8.7270 O   0  0  0  0  0  2           0  0  0
    1.6581    2.9298    1.3453 O   0  0  0  0  0  2           0  0  0
   -5.7298    0.5270    2.9828 N   0  0  0  0  0  3           0  0  0
   -6.1936   -0.5900    3.5263 N   0  0  0  0  0  3           0  0  0
   -4.6699    0.8628    3.7300 N   0  0  0  0  0  3           0  0  0
   -5.4357   -0.9644    4.6117 N   0  0  0  0  0  3           0  0  0
    1.4520    0.0000    0.0000 N   0  0  0  0  0  3           0  0  0
    3.5373   -0.7678   -0.0096 N   0  0  0  0  0  3           0  0  0
    3.5506    0.6018   -0.0167 C   0  0  0  0  0  4           0  0  0
   -1.5353    0.0908    7.8084 C   0  0  0  0  0  4           0  0  0
   -4.4904   -0.0530    4.7314 C   0  0  0  0  0  4           0  0  0
    2.2665   -1.1166    0.0000 C   0  0  0  0  0  4           0  0  0
    2.2672    1.1152   -0.0106 C   0  0  0  0  0  4           0  0  0
   -3.4406    0.0157    5.7185 C   0  0  0  0  0  4           0  0  0
   -2.0600    0.0030    5.4047 C   0  0  0  0  0  4           0  0  0
   -1.5399    0.0011    4.0428 C   0  0  0  0  0  4           0  0  0
   -0.5416    0.0000    1.3968 C   0  0  0  0  0  4           0  0  0
   -1.1315    0.0316    6.4697 C   0  0  0  0  0  4           0  0  0
   -2.8942    0.1196    8.1041 C   0  0  0  0  0  4           0  0  0
   -3.8320    0.0844    7.0695 C   0  0  0  0  0  4           0  0  0
   -1.2953   -1.2044    3.3685 C   0  0  0  0  0  4           0  0  0
   -1.2711    1.2057    3.3766 C   0  0  0  0  0  4           0  0  0
   -0.7995   -1.2048    2.0616 C   0  0  0  0  0  4           0  0  0
   -0.7758    1.2051    2.0697 C   0  0  0  0  0  4           0  0  0
    1.7859    2.5132   -0.0073 C   0  0  0  0  0  4           0  0  0
   -1.0600    0.1788   10.0464 C   0  0  0  0  0  4           0  0  0
    0.0000    0.0000   -0.0000 C   0  0  0  0  0  4           0  0  0
    1.7789   -2.5229    0.0147 C   0  0  0  0  0  4           0  0  0
    2.5221   -3.4043   -0.9841 C   0  0  0  0  0  4           0  0  0
    2.0555   -4.8605   -1.0057 C   0  0  0  0  0  4           0  0  0
    2.8342   -5.6833   -2.0197 C   0  0  0  0  0  4           0  0  0
  1 10  1  0     0  0
  2 11  1  0     0  0
  2 27  1  0     0  0
  3 26  1  0     0  0
  4  5  2  0     0  0
  4  6  1  0     0  0
  5  7  1  0     0  0
  6 12  1  0     0  0
  7 12  2  0     0  0
  8 13  1  0     0  0
  8 14  1  0     0  0
  8 28  1  0     0  0
  9 10  1  0     0  0
  9 13  2  0     0  0
 10 14  2  0     0  0
 11 19  1  0     0  0
 11 20  2  0     0  0
 12 15  1  0     0  0
 13 29  1  0     0  0
 14 26  1  0     0  0
 15 16  1  0     0  0
 15 21  2  0     0  0
 16 17  1  0     0  0
 16 19  2  0     0  0
 17 22  2  0     0  0
 17 23  1  0     0  0
 18 24  2  0     0  0
 18 25  1  0     0  0
 18 28  1  0     0  0
 20 21  1  0     0  0
 22 24  1  0     0  0
 23 25  2  0     0  0
 29 30  1  0     0  0
 30 31  1  0     0  0
 31 32  1  0     0  0
M  END
> <standard_type>
pIC50

> <# Confs.>
25

> <canonical_smiles>
ClC(N=C1CCCC)=C(CO)N1CC2=CC=C(C3=CC(OC)=CC=C3C4=NN=NN4)C=C2

> <standard_relation>
=

> <Publication_ID>
nan

> <predicted_activity_value>
7.102372908709558

> <actual_activity_value>
6.292429823902063

> <Compound>
12

> <standard_units>
nM

> hash
15917884378459634572

$$$$
12_
XXILIB    08252103443D 0   0.00000     0.00000

 32 35  0     1  0            999 V2000
    5.0102    1.4826   -0.0264 Cl  0  0  0  0  0  1           0  0  0
   -5.1481    1.2218    6.9571 O   0  0  0  0  0  2           0  0  0
    1.6581    2.9298    1.3453 O   0  0  0  0  0  2           0  0  0
    1.9814   -1.5718    5.6979 N   0  0  0  0  0  3           0  0  0
    1.6705   -2.4227    6.6661 N   0  0  0  0  0  3           0  0  0
    0.8898   -0.8116    5.5396 N   0  0  0  0  0  3           0  0  0
    0.3905   -2.2074    7.1224 N   0  0  0  0  0  3           0  0  0
    1.4520   -0.0000   -0.0000 N   0  0  0  0  0  3           0  0  0
    3.5373   -0.7678   -0.0096 N   0  0  0  0  0  3           0  0  0
    3.5506    0.6018   -0.0167 C   0  0  0  0  0  4           0  0  0
   -3.9240    0.6056    6.8956 C   0  0  0  0  0  4           0  0  0
   -0.0877   -1.2034    6.4140 C   0  0  0  0  0  4           0  0  0
    2.2665   -1.1166    0.0000 C   0  0  0  0  0  4           0  0  0
    2.2672    1.1152   -0.0106 C   0  0  0  0  0  4           0  0  0
   -1.3930   -0.5951    6.5012 C   0  0  0  0  0  4           0  0  0
   -2.0600    0.0030    5.4047 C   0  0  0  0  0  4           0  0  0
   -1.5399    0.0011    4.0428 C   0  0  0  0  0  4           0  0  0
   -0.5416    0.0000    1.3968 C   0  0  0  0  0  4           0  0  0
   -3.3186    0.6034    5.6339 C   0  0  0  0  0  4           0  0  0
   -3.2670    0.0004    7.9619 C   0  0  0  0  0  4           0  0  0
   -2.0183   -0.5932    7.7629 C   0  0  0  0  0  4           0  0  0
   -1.2953   -1.2044    3.3685 C   0  0  0  0  0  4           0  0  0
   -1.2711    1.2057    3.3766 C   0  0  0  0  0  4           0  0  0
   -0.7995   -1.2048    2.0616 C   0  0  0  0  0  4           0  0  0
   -0.7758    1.2051    2.0697 C   0  0  0  0  0  4           0  0  0
    1.7859    2.5132   -0.0073 C   0  0  0  0  0  4           0  0  0
   -5.6541    1.1551    8.2909 C   0  0  0  0  0  4           0  0  0
    0.0000    0.0000    0.0000 C   0  0  0  0  0  4           0  0  0
    1.7789   -2.5229    0.0147 C   0  0  0  0  0  4           0  0  0
    1.5754   -3.0803   -1.3905 C   0  0  0  0  0  4           0  0  0
    1.0743   -4.5247   -1.4269 C   0  0  0  0  0  4           0  0  0
   -0.2667   -4.6703   -0.7254 C   0  0  0  0  0  4           0  0  0
  1 10  1  0     0  0
  2 11  1  0     0  0
  2 27  1  0     0  0
  3 26  1  0     0  0
  4  5  2  0     0  0
  4  6  1  0     0  0
  5  7  1  0     0  0
  6 12  1  0     0  0
  7 12  2  0     0  0
  8 13  1  0     0  0
  8 14  1  0     0  0
  8 28  1  0     0  0
  9 10  1  0     0  0
  9 13  2  0     0  0
 10 14  2  0     0  0
 11 19  1  0     0  0
 11 20  2  0     0  0
 12 15  1  0     0  0
 13 29  1  0     0  0
 14 26  1  0     0  0
 15 16  1  0     0  0
 15 21  2  0     0  0
 16 17  1  0     0  0
 16 19  2  0     0  0
 17 22  2  0     0  0
 17 23  1  0     0  0
 18 24  2  0     0  0
 18 25  1  0     0  0
 18 28  1  0     0  0
 20 21  1  0     0  0
 22 24  1  0     0  0
 23 25  2  0     0  0
 29 30  1  0     0  0
 30 31  1  0     0  0
 31 32  1  0     0  0
M  END
> <standard_type>
pIC50

> <# Confs.>
25

> <canonical_smiles>
ClC(N=C1CCCC)=C(CO)N1CC2=CC=C(C3=CC(OC)=CC=C3C4=NN=NN4)C=C2

> <standard_relation>
=

> <Publication_ID>
nan

> <predicted_activity_value>
7.102372908709558

> <actual_activity_value>
6.292429823902063

> <Compound>
12

> <standard_units>
nM

> hash
15917884378459634572

$$$$
12_
XXILIB    08252103443D 0   0.00000     0.00000

 32 35  0     1  0            999 V2000
    5.0102   -1.4826    0.0264 Cl  0  0  0  0  0  1           0  0  0
   -2.3175   -2.4794    8.0548 O   0  0  0  0  0  2           0  0  0
    1.6581   -2.9298   -1.3453 O   0  0  0  0  0  2           0  0  0
   -3.5850    3.9014    3.8439 N   0  0  0  0  0  3           0  0  0
   -2.7986    4.4979    4.7293 N   0  0  0  0  0  3           0  0  0
   -3.6225    2.6169    4.2224 N   0  0  0  0  0  3           0  0  0
   -2.3379    3.6014    5.6657 N   0  0  0  0  0  3           0  0  0
    1.4520    0.0000   -0.0000 N   0  0  0  0  0  3           0  0  0
    3.5373    0.7678    0.0096 N   0  0  0  0  0  3           0  0  0
    3.5506   -0.6018    0.0167 C   0  0  0  0  0  4           0  0  0
   -2.4683   -1.2524    7.4601 C   0  0  0  0  0  4           0  0  0
   -2.8552    2.4329    5.3408 C   0  0  0  0  0  4           0  0  0
    2.2665    1.1166   -0.0000 C   0  0  0  0  0  4           0  0  0
    2.2672   -1.1152    0.0106 C   0  0  0  0  0  4           0  0  0
   -2.6746    1.1645    6.0042 C   0  0  0  0  0  4           0  0  0
   -2.1152    0.0216    5.3833 C   0  0  0  0  0  4           0  0  0
   -1.5819    0.0175    4.0265 C   0  0  0  0  0  4           0  0  0
   -0.5416   -0.0000    1.3968 C   0  0  0  0  0  4           0  0  0
   -2.0338   -1.1742    6.1321 C   0  0  0  0  0  4           0  0  0
   -3.0009   -0.1186    8.0651 C   0  0  0  0  0  4           0  0  0
   -3.0993    1.0735    7.3437 C   0  0  0  0  0  4           0  0  0
   -0.5175    0.8588    3.6701 C   0  0  0  0  0  4           0  0  0
   -2.1228   -0.8274    3.0463 C   0  0  0  0  0  4           0  0  0
   -0.0052    0.8519    2.3697 C   0  0  0  0  0  4           0  0  0
   -1.6100   -0.8345    1.7462 C   0  0  0  0  0  4           0  0  0
    1.7859   -2.5132    0.0073 C   0  0  0  0  0  4           0  0  0
   -2.7962   -2.4248    9.3992 C   0  0  0  0  0  4           0  0  0
    0.0000    0.0000   -0.0000 C   0  0  0  0  0  4           0  0  0
    1.7789    2.5229   -0.0147 C   0  0  0  0  0  4           0  0  0
    2.5414    3.3901   -1.0112 C   0  0  0  0  0  4           0  0  0
    2.0756    4.8458   -1.0625 C   0  0  0  0  0  4           0  0  0
    2.8739    5.6543   -2.0728 C   0  0  0  0  0  4           0  0  0
  1 10  1  0     0  0
  2 11  1  0     0  0
  2 27  1  0     0  0
  3 26  1  0     0  0
  4  5  2  0     0  0
  4  6  1  0     0  0
  5  7  1  0     0  0
  6 12  1  0     0  0
  7 12  2  0     0  0
  8 13  1  0     0  0
  8 14  1  0     0  0
  8 28  1  0     0  0
  9 10  1  0     0  0
  9 13  2  0     0  0
 10 14  2  0     0  0
 11 19  1  0     0  0
 11 20  2  0     0  0
 12 15  1  0     0  0
 13 29  1  0     0  0
 14 26  1  0     0  0
 15 16  1  0     0  0
 15 21  2  0     0  0
 16 17  1  0     0  0
 16 19  2  0     0  0
 17 22  2  0     0  0
 17 23  1  0     0  0
 18 24  2  0     0  0
 18 25  1  0     0  0
 18 28  1  0     0  0
 20 21  1  0     0  0
 22 24  1  0     0  0
 23 25  2  0     0  0
 29 30  1  0     0  0
 30 31  1  0     0  0
 31 32  1  0     0  0
M  END
> <standard_type>
pIC50

> <# Confs.>
25

> <canonical_smiles>
ClC(N=C1CCCC)=C(CO)N1CC2=CC=C(C3=CC(OC)=CC=C3C4=NN=NN4)C=C2

> <standard_relation>
=

> <Publication_ID>
nan

> <predicted_activity_value>
7.102372908709558

> <actual_activity_value>
6.292429823902063

> <Compound>
12

> <standard_units>
nM

> hash
15917884378459634572

$$$$
12_
XXILIB    08252103443D 0   0.00000     0.00000

 32 35  0     1  0            999 V2000
    5.0102   -1.4826    0.0264 Cl  0  0  0  0  0  1           0  0  0
   -0.8977    1.4173    8.5798 O   0  0  0  0  0  2           0  0  0
    0.7500   -2.6181   -0.9598 O   0  0  0  0  0  2           0  0  0
   -5.4389   -1.6895    3.0969 N   0  0  0  0  0  3           0  0  0
   -5.3506   -2.7765    3.8511 N   0  0  0  0  0  3           0  0  0
   -4.6927   -0.7703    3.7236 N   0  0  0  0  0  3           0  0  0
   -4.5541   -2.5530    4.9505 N   0  0  0  0  0  3           0  0  0
    1.4520    0.0000   -0.0000 N   0  0  0  0  0  3           0  0  0
    3.5373    0.7678    0.0096 N   0  0  0  0  0  3           0  0  0
    3.5506   -0.6018    0.0167 C   0  0  0  0  0  4           0  0  0
   -1.7434    0.7532    7.7280 C   0  0  0  0  0  4           0  0  0
   -4.1504   -1.3009    4.8629 C   0  0  0  0  0  4           0  0  0
    2.2665    1.1166   -0.0000 C   0  0  0  0  0  4           0  0  0
    2.2672   -1.1152    0.0106 C   0  0  0  0  0  4           0  0  0
   -3.2989   -0.5748    5.7734 C   0  0  0  0  0  4           0  0  0
   -2.0600    0.0030    5.4047 C   0  0  0  0  0  4           0  0  0
   -1.5399    0.0011    4.0428 C   0  0  0  0  0  4           0  0  0
   -0.5416    0.0000    1.3968 C   0  0  0  0  0  4           0  0  0
   -1.3003    0.6515    6.4044 C   0  0  0  0  0  4           0  0  0
   -2.9699    0.1962    8.0751 C   0  0  0  0  0  4           0  0  0
   -3.7361   -0.4570    7.1068 C   0  0  0  0  0  4           0  0  0
   -1.2953   -1.2044    3.3685 C   0  0  0  0  0  4           0  0  0
   -1.2711    1.2057    3.3766 C   0  0  0  0  0  4           0  0  0
   -0.7995   -1.2048    2.0616 C   0  0  0  0  0  4           0  0  0
   -0.7758    1.2051    2.0697 C   0  0  0  0  0  4           0  0  0
    1.7859   -2.5132    0.0073 C   0  0  0  0  0  4           0  0  0
   -1.4634    1.4508    9.8907 C   0  0  0  0  0  4           0  0  0
    0.0000   -0.0000    0.0000 C   0  0  0  0  0  4           0  0  0
    1.7789    2.5229   -0.0147 C   0  0  0  0  0  4           0  0  0
    2.5414    3.3901   -1.0112 C   0  0  0  0  0  4           0  0  0
    2.0756    4.8458   -1.0625 C   0  0  0  0  0  4           0  0  0
    2.8739    5.6543   -2.0728 C   0  0  0  0  0  4           0  0  0
  1 10  1  0     0  0
  2 11  1  0     0  0
  2 27  1  0     0  0
  3 26  1  0     0  0
  4  5  2  0     0  0
  4  6  1  0     0  0
  5  7  1  0     0  0
  6 12  1  0     0  0
  7 12  2  0     0  0
  8 13  1  0     0  0
  8 14  1  0     0  0
  8 28  1  0     0  0
  9 10  1  0     0  0
  9 13  2  0     0  0
 10 14  2  0     0  0
 11 19  1  0     0  0
 11 20  2  0     0  0
 12 15  1  0     0  0
 13 29  1  0     0  0
 14 26  1  0     0  0
 15 16  1  0     0  0
 15 21  2  0     0  0
 16 17  1  0     0  0
 16 19  2  0     0  0
 17 22  2  0     0  0
 17 23  1  0     0  0
 18 24  2  0     0  0
 18 25  1  0     0  0
 18 28  1  0     0  0
 20 21  1  0     0  0
 22 24  1  0     0  0
 23 25  2  0     0  0
 29 30  1  0     0  0
 30 31  1  0     0  0
 31 32  1  0     0  0
M  END
> <standard_type>
pIC50

> <# Confs.>
25

> <canonical_smiles>
ClC(N=C1CCCC)=C(CO)N1CC2=CC=C(C3=CC(OC)=CC=C3C4=NN=NN4)C=C2

> <standard_relation>
=

> <Publication_ID>
nan

> <predicted_activity_value>
7.102372908709558

> <actual_activity_value>
6.292429823902063

> <Compound>
12

> <standard_units>
nM

> hash
15917884378459634572

$$$$
12_
XXILIB    08252103443D 0   0.00000     0.00000

 32 35  0     1  0            999 V2000
    5.0102   -1.4826    0.0264 Cl  0  0  0  0  0  1           0  0  0
   -3.5684   -2.6038    7.5441 O   0  0  0  0  0  2           0  0  0
    1.6581   -2.9298   -1.3453 O   0  0  0  0  0  2           0  0  0
   -0.2638    3.9887    5.1037 N   0  0  0  0  0  3           0  0  0
   -1.4572    4.5062    5.3609 N   0  0  0  0  0  3           0  0  0
   -0.3795    2.6865    5.3961 N   0  0  0  0  0  3           0  0  0
   -2.3279    3.5421    5.8138 N   0  0  0  0  0  3           0  0  0
    1.4520    0.0000    0.0000 N   0  0  0  0  0  3           0  0  0
    3.5373    0.7678    0.0096 N   0  0  0  0  0  3           0  0  0
    3.5506   -0.6018    0.0167 C   0  0  0  0  0  4           0  0  0
   -3.1068   -1.3589    7.1993 C   0  0  0  0  0  4           0  0  0
   -1.6474    2.4129    5.8336 C   0  0  0  0  0  4           0  0  0
    2.2665    1.1166    0.0000 C   0  0  0  0  0  4           0  0  0
    2.2672   -1.1152    0.0106 C   0  0  0  0  0  4           0  0  0
   -2.1047    1.1053    6.2365 C   0  0  0  0  0  4           0  0  0
   -2.1113   -0.0258    5.3848 C   0  0  0  0  0  4           0  0  0
   -1.5804   -0.0191    4.0271 C   0  0  0  0  0  4           0  0  0
   -0.5416   -0.0000    1.3968 C   0  0  0  0  0  4           0  0  0
   -2.6266   -1.2408    5.8901 C   0  0  0  0  0  4           0  0  0
   -3.0801   -0.2452    8.0323 C   0  0  0  0  0  4           0  0  0
   -2.5828    0.9694    7.5541 C   0  0  0  0  0  4           0  0  0
   -2.1055    0.8444    3.0543 C   0  0  0  0  0  4           0  0  0
   -0.5330   -0.8778    3.6628 C   0  0  0  0  0  4           0  0  0
   -1.5937    0.8519    1.7536 C   0  0  0  0  0  4           0  0  0
   -0.0211   -0.8698    2.3624 C   0  0  0  0  0  4           0  0  0
    1.7859   -2.5132    0.0073 C   0  0  0  0  0  4           0  0  0
   -4.0269   -2.5897    8.8966 C   0  0  0  0  0  4           0  0  0
    0.0000    0.0000    0.0000 C   0  0  0  0  0  4           0  0  0
    1.7789    2.5229   -0.0147 C   0  0  0  0  0  4           0  0  0
    2.5221    3.4043    0.9841 C   0  0  0  0  0  4           0  0  0
    2.3995    2.9470    2.4382 C   0  0  0  0  0  4           0  0  0
    3.1610    3.8658    3.3805 C   0  0  0  0  0  4           0  0  0
  1 10  1  0     0  0
  2 11  1  0     0  0
  2 27  1  0     0  0
  3 26  1  0     0  0
  4  5  2  0     0  0
  4  6  1  0     0  0
  5  7  1  0     0  0
  6 12  1  0     0  0
  7 12  2  0     0  0
  8 13  1  0     0  0
  8 14  1  0     0  0
  8 28  1  0     0  0
  9 10  1  0     0  0
  9 13  2  0     0  0
 10 14  2  0     0  0
 11 19  1  0     0  0
 11 20  2  0     0  0
 12 15  1  0     0  0
 13 29  1  0     0  0
 14 26  1  0     0  0
 15 16  1  0     0  0
 15 21  2  0     0  0
 16 17  1  0     0  0
 16 19  2  0     0  0
 17 22  2  0     0  0
 17 23  1  0     0  0
 18 24  2  0     0  0
 18 25  1  0     0  0
 18 28  1  0     0  0
 20 21  1  0     0  0
 22 24  1  0     0  0
 23 25  2  0     0  0
 29 30  1  0     0  0
 30 31  1  0     0  0
 31 32  1  0     0  0
M  END
> <standard_type>
pIC50

> <# Confs.>
25

> <canonical_smiles>
ClC(N=C1CCCC)=C(CO)N1CC2=CC=C(C3=CC(OC)=CC=C3C4=NN=NN4)C=C2

> <standard_relation>
=

> <Publication_ID>
nan

> <predicted_activity_value>
7.102372908709558

> <actual_activity_value>
6.292429823902063

> <Compound>
12

> <standard_units>
nM

> hash
15917884378459634572

$$$$
12_
XXILIB    08252103443D 0   0.00000     0.00000

 32 35  0     1  0            999 V2000
    5.0102    1.4826   -0.0264 Cl  0  0  0  0  0  1           0  0  0
   -0.8977    1.4173    8.5798 O   0  0  0  0  0  2           0  0  0
    1.6581    2.9298    1.3453 O   0  0  0  0  0  2           0  0  0
   -5.4389   -1.6895    3.0969 N   0  0  0  0  0  3           0  0  0
   -5.3506   -2.7765    3.8511 N   0  0  0  0  0  3           0  0  0
   -4.6927   -0.7703    3.7236 N   0  0  0  0  0  3           0  0  0
   -4.5541   -2.5530    4.9505 N   0  0  0  0  0  3           0  0  0
    1.4520    0.0000    0.0000 N   0  0  0  0  0  3           0  0  0
    3.5373   -0.7678   -0.0096 N   0  0  0  0  0  3           0  0  0
    3.5506    0.6018   -0.0167 C   0  0  0  0  0  4           0  0  0
   -1.7434    0.7532    7.7280 C   0  0  0  0  0  4           0  0  0
   -4.1504   -1.3009    4.8629 C   0  0  0  0  0  4           0  0  0
    2.2665   -1.1166    0.0000 C   0  0  0  0  0  4           0  0  0
    2.2672    1.1152   -0.0106 C   0  0  0  0  0  4           0  0  0
   -3.2989   -0.5748    5.7734 C   0  0  0  0  0  4           0  0  0
   -2.0600    0.0030    5.4047 C   0  0  0  0  0  4           0  0  0
   -1.5399    0.0011    4.0428 C   0  0  0  0  0  4           0  0  0
   -0.5416    0.0000    1.3968 C   0  0  0  0  0  4           0  0  0
   -1.3003    0.6515    6.4044 C   0  0  0  0  0  4           0  0  0
   -2.9699    0.1962    8.0751 C   0  0  0  0  0  4           0  0  0
   -3.7361   -0.4570    7.1068 C   0  0  0  0  0  4           0  0  0
   -1.2953   -1.2044    3.3685 C   0  0  0  0  0  4           0  0  0
   -1.2711    1.2057    3.3766 C   0  0  0  0  0  4           0  0  0
   -0.7995   -1.2048    2.0616 C   0  0  0  0  0  4           0  0  0
   -0.7758    1.2051    2.0697 C   0  0  0  0  0  4           0  0  0
    1.7859    2.5132   -0.0073 C   0  0  0  0  0  4           0  0  0
   -1.4634    1.4508    9.8907 C   0  0  0  0  0  4           0  0  0
    0.0000   -0.0000    0.0000 C   0  0  0  0  0  4           0  0  0
    1.7789   -2.5229    0.0147 C   0  0  0  0  0  4           0  0  0
    2.5414   -3.3901    1.0112 C   0  0  0  0  0  4           0  0  0
    2.0756   -4.8458    1.0625 C   0  0  0  0  0  4           0  0  0
    2.8739   -5.6543    2.0728 C   0  0  0  0  0  4           0  0  0
  1 10  1  0     0  0
  2 11  1  0     0  0
  2 27  1  0     0  0
  3 26  1  0     0  0
  4  5  2  0     0  0
  4  6  1  0     0  0
  5  7  1  0     0  0
  6 12  1  0     0  0
  7 12  2  0     0  0
  8 13  1  0     0  0
  8 14  1  0     0  0
  8 28  1  0     0  0
  9 10  1  0     0  0
  9 13  2  0     0  0
 10 14  2  0     0  0
 11 19  1  0     0  0
 11 20  2  0     0  0
 12 15  1  0     0  0
 13 29  1  0     0  0
 14 26  1  0     0  0
 15 16  1  0     0  0
 15 21  2  0     0  0
 16 17  1  0     0  0
 16 19  2  0     0  0
 17 22  2  0     0  0
 17 23  1  0     0  0
 18 24  2  0     0  0
 18 25  1  0     0  0
 18 28  1  0     0  0
 20 21  1  0     0  0
 22 24  1  0     0  0
 23 25  2  0     0  0
 29 30  1  0     0  0
 30 31  1  0     0  0
 31 32  1  0     0  0
M  END
> <standard_type>
pIC50

> <# Confs.>
25

> <canonical_smiles>
ClC(N=C1CCCC)=C(CO)N1CC2=CC=C(C3=CC(OC)=CC=C3C4=NN=NN4)C=C2

> <standard_relation>
=

> <Publication_ID>
nan

> <predicted_activity_value>
7.102372908709558

> <actual_activity_value>
6.292429823902063

> <Compound>
12

> <standard_units>
nM

> hash
15917884378459634572

$$$$
12_
XXILIB    08252103443D 0   0.00000     0.00000

 32 35  0     1  0            999 V2000
    5.0102    1.4826   -0.0264 Cl  0  0  0  0  0  1           0  0  0
   -0.8977    1.4173    8.5798 O   0  0  0  0  0  2           0  0  0
    1.6581    2.9298    1.3453 O   0  0  0  0  0  2           0  0  0
   -5.4389   -1.6895    3.0969 N   0  0  0  0  0  3           0  0  0
   -5.3506   -2.7765    3.8511 N   0  0  0  0  0  3           0  0  0
   -4.6927   -0.7703    3.7236 N   0  0  0  0  0  3           0  0  0
   -4.5541   -2.5530    4.9505 N   0  0  0  0  0  3           0  0  0
    1.4520    0.0000    0.0000 N   0  0  0  0  0  3           0  0  0
    3.5373   -0.7678   -0.0096 N   0  0  0  0  0  3           0  0  0
    3.5506    0.6018   -0.0167 C   0  0  0  0  0  4           0  0  0
   -1.7434    0.7532    7.7280 C   0  0  0  0  0  4           0  0  0
   -4.1504   -1.3009    4.8629 C   0  0  0  0  0  4           0  0  0
    2.2665   -1.1166    0.0000 C   0  0  0  0  0  4           0  0  0
    2.2672    1.1152   -0.0106 C   0  0  0  0  0  4           0  0  0
   -3.2989   -0.5748    5.7734 C   0  0  0  0  0  4           0  0  0
   -2.0600    0.0030    5.4047 C   0  0  0  0  0  4           0  0  0
   -1.5399    0.0011    4.0428 C   0  0  0  0  0  4           0  0  0
   -0.5416    0.0000    1.3968 C   0  0  0  0  0  4           0  0  0
   -1.3003    0.6515    6.4044 C   0  0  0  0  0  4           0  0  0
   -2.9699    0.1962    8.0751 C   0  0  0  0  0  4           0  0  0
   -3.7361   -0.4570    7.1068 C   0  0  0  0  0  4           0  0  0
   -1.2953   -1.2044    3.3685 C   0  0  0  0  0  4           0  0  0
   -1.2711    1.2057    3.3766 C   0  0  0  0  0  4           0  0  0
   -0.7995   -1.2048    2.0616 C   0  0  0  0  0  4           0  0  0
   -0.7758    1.2051    2.0697 C   0  0  0  0  0  4           0  0  0
    1.7859    2.5132   -0.0073 C   0  0  0  0  0  4           0  0  0
   -1.4634    1.4508    9.8907 C   0  0  0  0  0  4           0  0  0
    0.0000   -0.0000    0.0000 C   0  0  0  0  0  4           0  0  0
    1.7789   -2.5229    0.0147 C   0  0  0  0  0  4           0  0  0
    2.5414   -3.3901    1.0112 C   0  0  0  0  0  4           0  0  0
    2.4471   -2.9124    2.4609 C   0  0  0  0  0  4           0  0  0
    3.2268   -3.8178    3.4011 C   0  0  0  0  0  4           0  0  0
  1 10  1  0     0  0
  2 11  1  0     0  0
  2 27  1  0     0  0
  3 26  1  0     0  0
  4  5  2  0     0  0
  4  6  1  0     0  0
  5  7  1  0     0  0
  6 12  1  0     0  0
  7 12  2  0     0  0
  8 13  1  0     0  0
  8 14  1  0     0  0
  8 28  1  0     0  0
  9 10  1  0     0  0
  9 13  2  0     0  0
 10 14  2  0     0  0
 11 19  1  0     0  0
 11 20  2  0     0  0
 12 15  1  0     0  0
 13 29  1  0     0  0
 14 26  1  0     0  0
 15 16  1  0     0  0
 15 21  2  0     0  0
 16 17  1  0     0  0
 16 19  2  0     0  0
 17 22  2  0     0  0
 17 23  1  0     0  0
 18 24  2  0     0  0
 18 25  1  0     0  0
 18 28  1  0     0  0
 20 21  1  0     0  0
 22 24  1  0     0  0
 23 25  2  0     0  0
 29 30  1  0     0  0
 30 31  1  0     0  0
 31 32  1  0     0  0
M  END
> <standard_type>
pIC50

> <# Confs.>
25

> <canonical_smiles>
ClC(N=C1CCCC)=C(CO)N1CC2=CC=C(C3=CC(OC)=CC=C3C4=NN=NN4)C=C2

> <standard_relation>
=

> <Publication_ID>
nan

> <predicted_activity_value>
7.102372908709558

> <actual_activity_value>
6.292429823902063

> <Compound>
12

> <standard_units>
nM

> hash
15917884378459634572

$$$$
12_
XXILIB    08252103443D 0   0.00000     0.00000

 32 35  0     1  0            999 V2000
    5.0102   -1.4826    0.0264 Cl  0  0  0  0  0  1           0  0  0
   -3.5684   -2.6038    7.5441 O   0  0  0  0  0  2           0  0  0
    1.6581   -2.9298   -1.3453 O   0  0  0  0  0  2           0  0  0
   -0.2638    3.9887    5.1037 N   0  0  0  0  0  3           0  0  0
   -1.4572    4.5062    5.3609 N   0  0  0  0  0  3           0  0  0
   -0.3795    2.6865    5.3961 N   0  0  0  0  0  3           0  0  0
   -2.3279    3.5421    5.8138 N   0  0  0  0  0  3           0  0  0
    1.4520    0.0000    0.0000 N   0  0  0  0  0  3           0  0  0
    3.5373    0.7678    0.0096 N   0  0  0  0  0  3           0  0  0
    3.5506   -0.6018    0.0167 C   0  0  0  0  0  4           0  0  0
   -3.1068   -1.3589    7.1993 C   0  0  0  0  0  4           0  0  0
   -1.6474    2.4129    5.8336 C   0  0  0  0  0  4           0  0  0
    2.2665    1.1166    0.0000 C   0  0  0  0  0  4           0  0  0
    2.2672   -1.1152    0.0106 C   0  0  0  0  0  4           0  0  0
   -2.1047    1.1053    6.2365 C   0  0  0  0  0  4           0  0  0
   -2.1113   -0.0258    5.3848 C   0  0  0  0  0  4           0  0  0
   -1.5804   -0.0191    4.0271 C   0  0  0  0  0  4           0  0  0
   -0.5416   -0.0000    1.3968 C   0  0  0  0  0  4           0  0  0
   -2.6266   -1.2408    5.8901 C   0  0  0  0  0  4           0  0  0
   -3.0801   -0.2452    8.0323 C   0  0  0  0  0  4           0  0  0
   -2.5828    0.9694    7.5541 C   0  0  0  0  0  4           0  0  0
   -2.1055    0.8444    3.0543 C   0  0  0  0  0  4           0  0  0
   -0.5330   -0.8778    3.6628 C   0  0  0  0  0  4           0  0  0
   -1.5937    0.8519    1.7536 C   0  0  0  0  0  4           0  0  0
   -0.0211   -0.8698    2.3624 C   0  0  0  0  0  4           0  0  0
    1.7859   -2.5132    0.0073 C   0  0  0  0  0  4           0  0  0
   -4.0269   -2.5897    8.8966 C   0  0  0  0  0  4           0  0  0
    0.0000    0.0000    0.0000 C   0  0  0  0  0  4           0  0  0
    1.7789    2.5229   -0.0147 C   0  0  0  0  0  4           0  0  0
    1.6028    3.0603   -1.4313 C   0  0  0  0  0  4           0  0  0
    1.1027    4.5040   -1.4979 C   0  0  0  0  0  4           0  0  0
    0.9488    4.9779   -2.9344 C   0  0  0  0  0  4           0  0  0
  1 10  1  0     0  0
  2 11  1  0     0  0
  2 27  1  0     0  0
  3 26  1  0     0  0
  4  5  2  0     0  0
  4  6  1  0     0  0
  5  7  1  0     0  0
  6 12  1  0     0  0
  7 12  2  0     0  0
  8 13  1  0     0  0
  8 14  1  0     0  0
  8 28  1  0     0  0
  9 10  1  0     0  0
  9 13  2  0     0  0
 10 14  2  0     0  0
 11 19  1  0     0  0
 11 20  2  0     0  0
 12 15  1  0     0  0
 13 29  1  0     0  0
 14 26  1  0     0  0
 15 16  1  0     0  0
 15 21  2  0     0  0
 16 17  1  0     0  0
 16 19  2  0     0  0
 17 22  2  0     0  0
 17 23  1  0     0  0
 18 24  2  0     0  0
 18 25  1  0     0  0
 18 28  1  0     0  0
 20 21  1  0     0  0
 22 24  1  0     0  0
 23 25  2  0     0  0
 29 30  1  0     0  0
 30 31  1  0     0  0
 31 32  1  0     0  0
M  END
> <standard_type>
pIC50

> <# Confs.>
25

> <canonical_smiles>
ClC(N=C1CCCC)=C(CO)N1CC2=CC=C(C3=CC(OC)=CC=C3C4=NN=NN4)C=C2

> <standard_relation>
=

> <Publication_ID>
nan

> <predicted_activity_value>
7.102372908709558

> <actual_activity_value>
6.292429823902063

> <Compound>
12

> <standard_units>
nM

> hash
15917884378459634572

$$$$
12_
XXILIB    08252103443D 0   0.00000     0.00000

 32 35  0     1  0            999 V2000
    5.0102   -1.4826    0.0264 Cl  0  0  0  0  0  1           0  0  0
   -2.3175   -2.4794    8.0548 O   0  0  0  0  0  2           0  0  0
    1.6581   -2.9298   -1.3453 O   0  0  0  0  0  2           0  0  0
   -3.5850    3.9014    3.8439 N   0  0  0  0  0  3           0  0  0
   -2.7986    4.4979    4.7293 N   0  0  0  0  0  3           0  0  0
   -3.6225    2.6169    4.2224 N   0  0  0  0  0  3           0  0  0
   -2.3379    3.6014    5.6657 N   0  0  0  0  0  3           0  0  0
    1.4520    0.0000    0.0000 N   0  0  0  0  0  3           0  0  0
    3.5373    0.7678    0.0096 N   0  0  0  0  0  3           0  0  0
    3.5506   -0.6018    0.0167 C   0  0  0  0  0  4           0  0  0
   -2.4683   -1.2524    7.4601 C   0  0  0  0  0  4           0  0  0
   -2.8552    2.4329    5.3408 C   0  0  0  0  0  4           0  0  0
    2.2665    1.1166    0.0000 C   0  0  0  0  0  4           0  0  0
    2.2672   -1.1152    0.0106 C   0  0  0  0  0  4           0  0  0
   -2.6746    1.1645    6.0042 C   0  0  0  0  0  4           0  0  0
   -2.1152    0.0216    5.3833 C   0  0  0  0  0  4           0  0  0
   -1.5819    0.0175    4.0265 C   0  0  0  0  0  4           0  0  0
   -0.5416   -0.0000    1.3968 C   0  0  0  0  0  4           0  0  0
   -2.0338   -1.1742    6.1321 C   0  0  0  0  0  4           0  0  0
   -3.0009   -0.1186    8.0651 C   0  0  0  0  0  4           0  0  0
   -3.0993    1.0735    7.3437 C   0  0  0  0  0  4           0  0  0
   -0.5175    0.8588    3.6701 C   0  0  0  0  0  4           0  0  0
   -2.1228   -0.8274    3.0463 C   0  0  0  0  0  4           0  0  0
   -0.0052    0.8519    2.3697 C   0  0  0  0  0  4           0  0  0
   -1.6100   -0.8345    1.7462 C   0  0  0  0  0  4           0  0  0
    1.7859   -2.5132    0.0073 C   0  0  0  0  0  4           0  0  0
   -2.7962   -2.4248    9.3992 C   0  0  0  0  0  4           0  0  0
    0.0000    0.0000   -0.0000 C   0  0  0  0  0  4           0  0  0
    1.7789    2.5229   -0.0147 C   0  0  0  0  0  4           0  0  0
    2.5221    3.4043    0.9841 C   0  0  0  0  0  4           0  0  0
    2.0555    4.8605    1.0057 C   0  0  0  0  0  4           0  0  0
    2.8342    5.6833    2.0197 C   0  0  0  0  0  4           0  0  0
  1 10  1  0     0  0
  2 11  1  0     0  0
  2 27  1  0     0  0
  3 26  1  0     0  0
  4  5  2  0     0  0
  4  6  1  0     0  0
  5  7  1  0     0  0
  6 12  1  0     0  0
  7 12  2  0     0  0
  8 13  1  0     0  0
  8 14  1  0     0  0
  8 28  1  0     0  0
  9 10  1  0     0  0
  9 13  2  0     0  0
 10 14  2  0     0  0
 11 19  1  0     0  0
 11 20  2  0     0  0
 12 15  1  0     0  0
 13 29  1  0     0  0
 14 26  1  0     0  0
 15 16  1  0     0  0
 15 21  2  0     0  0
 16 17  1  0     0  0
 16 19  2  0     0  0
 17 22  2  0     0  0
 17 23  1  0     0  0
 18 24  2  0     0  0
 18 25  1  0     0  0
 18 28  1  0     0  0
 20 21  1  0     0  0
 22 24  1  0     0  0
 23 25  2  0     0  0
 29 30  1  0     0  0
 30 31  1  0     0  0
 31 32  1  0     0  0
M  END
> <standard_type>
pIC50

> <# Confs.>
25

> <canonical_smiles>
ClC(N=C1CCCC)=C(CO)N1CC2=CC=C(C3=CC(OC)=CC=C3C4=NN=NN4)C=C2

> <standard_relation>
=

> <Publication_ID>
nan

> <predicted_activity_value>
7.102372908709558

> <actual_activity_value>
6.292429823902063

> <Compound>
12

> <standard_units>
nM

> hash
15917884378459634572

$$$$
12_
XXILIB    08252103443D 0   0.00000     0.00000

 32 35  0     1  0            999 V2000
    5.0102   -1.4826    0.0264 Cl  0  0  0  0  0  1           0  0  0
   -3.5684   -2.6038    7.5441 O   0  0  0  0  0  2           0  0  0
    1.6581   -2.9298   -1.3453 O   0  0  0  0  0  2           0  0  0
   -0.2638    3.9887    5.1037 N   0  0  0  0  0  3           0  0  0
   -1.4572    4.5062    5.3609 N   0  0  0  0  0  3           0  0  0
   -0.3795    2.6865    5.3961 N   0  0  0  0  0  3           0  0  0
   -2.3279    3.5421    5.8138 N   0  0  0  0  0  3           0  0  0
    1.4520    0.0000    0.0000 N   0  0  0  0  0  3           0  0  0
    3.5373    0.7678    0.0096 N   0  0  0  0  0  3           0  0  0
    3.5506   -0.6018    0.0167 C   0  0  0  0  0  4           0  0  0
   -3.1068   -1.3589    7.1993 C   0  0  0  0  0  4           0  0  0
   -1.6474    2.4129    5.8336 C   0  0  0  0  0  4           0  0  0
    2.2665    1.1166    0.0000 C   0  0  0  0  0  4           0  0  0
    2.2672   -1.1152    0.0106 C   0  0  0  0  0  4           0  0  0
   -2.1047    1.1053    6.2365 C   0  0  0  0  0  4           0  0  0
   -2.1113   -0.0258    5.3848 C   0  0  0  0  0  4           0  0  0
   -1.5804   -0.0191    4.0271 C   0  0  0  0  0  4           0  0  0
   -0.5416   -0.0000    1.3968 C   0  0  0  0  0  4           0  0  0
   -2.6266   -1.2408    5.8901 C   0  0  0  0  0  4           0  0  0
   -3.0801   -0.2452    8.0323 C   0  0  0  0  0  4           0  0  0
   -2.5828    0.9694    7.5541 C   0  0  0  0  0  4           0  0  0
   -2.1055    0.8444    3.0543 C   0  0  0  0  0  4           0  0  0
   -0.5330   -0.8778    3.6628 C   0  0  0  0  0  4           0  0  0
   -1.5937    0.8519    1.7536 C   0  0  0  0  0  4           0  0  0
   -0.0211   -0.8698    2.3624 C   0  0  0  0  0  4           0  0  0
    1.7859   -2.5132    0.0073 C   0  0  0  0  0  4           0  0  0
   -4.0269   -2.5897    8.8966 C   0  0  0  0  0  4           0  0  0
    0.0000    0.0000    0.0000 C   0  0  0  0  0  4           0  0  0
    1.7789    2.5229   -0.0147 C   0  0  0  0  0  4           0  0  0
    1.6028    3.0603   -1.4313 C   0  0  0  0  0  4           0  0  0
    2.8849    3.0662   -2.2649 C   0  0  0  0  0  4           0  0  0
    2.6416    3.6122   -3.6630 C   0  0  0  0  0  4           0  0  0
  1 10  1  0     0  0
  2 11  1  0     0  0
  2 27  1  0     0  0
  3 26  1  0     0  0
  4  5  2  0     0  0
  4  6  1  0     0  0
  5  7  1  0     0  0
  6 12  1  0     0  0
  7 12  2  0     0  0
  8 13  1  0     0  0
  8 14  1  0     0  0
  8 28  1  0     0  0
  9 10  1  0     0  0
  9 13  2  0     0  0
 10 14  2  0     0  0
 11 19  1  0     0  0
 11 20  2  0     0  0
 12 15  1  0     0  0
 13 29  1  0     0  0
 14 26  1  0     0  0
 15 16  1  0     0  0
 15 21  2  0     0  0
 16 17  1  0     0  0
 16 19  2  0     0  0
 17 22  2  0     0  0
 17 23  1  0     0  0
 18 24  2  0     0  0
 18 25  1  0     0  0
 18 28  1  0     0  0
 20 21  1  0     0  0
 22 24  1  0     0  0
 23 25  2  0     0  0
 29 30  1  0     0  0
 30 31  1  0     0  0
 31 32  1  0     0  0
M  END
> <standard_type>
pIC50

> <# Confs.>
25

> <canonical_smiles>
ClC(N=C1CCCC)=C(CO)N1CC2=CC=C(C3=CC(OC)=CC=C3C4=NN=NN4)C=C2

> <standard_relation>
=

> <Publication_ID>
nan

> <predicted_activity_value>
7.102372908709558

> <actual_activity_value>
6.292429823902063

> <Compound>
12

> <standard_units>
nM

> hash
15917884378459634572

$$$$
12_
XXILIB    08252103443D 0   0.00000     0.00000

 32 35  0     1  0            999 V2000
    5.0102    1.4826   -0.0264 Cl  0  0  0  0  0  1           0  0  0
   -5.4247   -0.1066    6.8533 O   0  0  0  0  0  2           0  0  0
    1.6581    2.9298    1.3453 O   0  0  0  0  0  2           0  0  0
    2.2261    0.8623    6.0935 N   0  0  0  0  0  3           0  0  0
    2.3153   -0.3108    6.7051 N   0  0  0  0  0  3           0  0  0
    0.9119    1.0954    5.9793 N   0  0  0  0  0  3           0  0  0
    1.0679   -0.8224    6.9793 N   0  0  0  0  0  3           0  0  0
    1.4520    0.0000    0.0000 N   0  0  0  0  0  3           0  0  0
    3.5373   -0.7678   -0.0096 N   0  0  0  0  0  3           0  0  0
    3.5506    0.6018   -0.0167 C   0  0  0  0  0  4           0  0  0
   -4.0532   -0.0796    6.8472 C   0  0  0  0  0  4           0  0  0
    0.2008    0.0596    6.5225 C   0  0  0  0  0  4           0  0  0
    2.2665   -1.1166    0.0000 C   0  0  0  0  0  4           0  0  0
    2.2672    1.1152   -0.0106 C   0  0  0  0  0  4           0  0  0
   -1.2398   -0.0078    6.5589 C   0  0  0  0  0  4           0  0  0
   -2.0600    0.0030    5.4047 C   0  0  0  0  0  4           0  0  0
   -1.5399    0.0011    4.0428 C   0  0  0  0  0  4           0  0  0
   -0.5416    0.0000    1.3968 C   0  0  0  0  0  4           0  0  0
   -3.4620   -0.0240    5.5800 C   0  0  0  0  0  4           0  0  0
   -3.2372   -0.1065    7.9734 C   0  0  0  0  0  4           0  0  0
   -1.8484   -0.0729    7.8271 C   0  0  0  0  0  4           0  0  0
   -1.2953   -1.2044    3.3685 C   0  0  0  0  0  4           0  0  0
   -1.2711    1.2057    3.3766 C   0  0  0  0  0  4           0  0  0
   -0.7995   -1.2048    2.0616 C   0  0  0  0  0  4           0  0  0
   -0.7758    1.2051    2.0697 C   0  0  0  0  0  4           0  0  0
    1.7859    2.5132   -0.0073 C   0  0  0  0  0  4           0  0  0
   -5.8992   -0.1627    8.1992 C   0  0  0  0  0  4           0  0  0
    0.0000    0.0000    0.0000 C   0  0  0  0  0  4           0  0  0
    1.7789   -2.5229    0.0147 C   0  0  0  0  0  4           0  0  0
    2.5221   -3.4043   -0.9841 C   0  0  0  0  0  4           0  0  0
    2.3995   -2.9470   -2.4382 C   0  0  0  0  0  4           0  0  0
    3.1610   -3.8658   -3.3805 C   0  0  0  0  0  4           0  0  0
  1 10  1  0     0  0
  2 11  1  0     0  0
  2 27  1  0     0  0
  3 26  1  0     0  0
  4  5  2  0     0  0
  4  6  1  0     0  0
  5  7  1  0     0  0
  6 12  1  0     0  0
  7 12  2  0     0  0
  8 13  1  0     0  0
  8 14  1  0     0  0
  8 28  1  0     0  0
  9 10  1  0     0  0
  9 13  2  0     0  0
 10 14  2  0     0  0
 11 19  1  0     0  0
 11 20  2  0     0  0
 12 15  1  0     0  0
 13 29  1  0     0  0
 14 26  1  0     0  0
 15 16  1  0     0  0
 15 21  2  0     0  0
 16 17  1  0     0  0
 16 19  2  0     0  0
 17 22  2  0     0  0
 17 23  1  0     0  0
 18 24  2  0     0  0
 18 25  1  0     0  0
 18 28  1  0     0  0
 20 21  1  0     0  0
 22 24  1  0     0  0
 23 25  2  0     0  0
 29 30  1  0     0  0
 30 31  1  0     0  0
 31 32  1  0     0  0
M  END
> <standard_type>
pIC50

> <# Confs.>
25

> <canonical_smiles>
ClC(N=C1CCCC)=C(CO)N1CC2=CC=C(C3=CC(OC)=CC=C3C4=NN=NN4)C=C2

> <standard_relation>
=

> <Publication_ID>
nan

> <predicted_activity_value>
7.102372908709558

> <actual_activity_value>
6.292429823902063

> <Compound>
12

> <standard_units>
nM

> hash
15917884378459634572

$$$$
12_
XXILIB    08252103443D 0   0.00000     0.00000

 32 35  0     1  0            999 V2000
    5.0102   -1.4826    0.0264 Cl  0  0  0  0  0  1           0  0  0
   -5.4372    0.5994    6.8194 O   0  0  0  0  0  2           0  0  0
    1.6581   -2.9298   -1.3453 O   0  0  0  0  0  2           0  0  0
    1.9640   -1.5993    5.9676 N   0  0  0  0  0  3           0  0  0
    2.2038   -0.5797    6.7806 N   0  0  0  0  0  3           0  0  0
    0.6362   -1.5971    5.7900 N   0  0  0  0  0  3           0  0  0
    1.0384    0.0685    7.1192 N   0  0  0  0  0  3           0  0  0
    1.4520    0.0000   -0.0000 N   0  0  0  0  0  3           0  0  0
    3.5373    0.7678    0.0096 N   0  0  0  0  0  3           0  0  0
    3.5506   -0.6018    0.0167 C   0  0  0  0  0  4           0  0  0
   -4.0999    0.2938    6.8142 C   0  0  0  0  0  4           0  0  0
    0.0679   -0.5732    6.4987 C   0  0  0  0  0  4           0  0  0
    2.2665    1.1166   -0.0000 C   0  0  0  0  0  4           0  0  0
    2.2672   -1.1152    0.0106 C   0  0  0  0  0  4           0  0  0
   -1.3469   -0.2924    6.5304 C   0  0  0  0  0  4           0  0  0
   -2.1152    0.0216    5.3833 C   0  0  0  0  0  4           0  0  0
   -1.5819    0.0175    4.0265 C   0  0  0  0  0  4           0  0  0
   -0.5416   -0.0000    1.3968 C   0  0  0  0  0  4           0  0  0
   -3.4857    0.3194    5.5570 C   0  0  0  0  0  4           0  0  0
   -3.3389   -0.0323    7.9320 C   0  0  0  0  0  4           0  0  0
   -1.9802   -0.3231    7.7877 C   0  0  0  0  0  4           0  0  0
   -0.5175    0.8588    3.6701 C   0  0  0  0  0  4           0  0  0
   -2.1228   -0.8274    3.0463 C   0  0  0  0  0  4           0  0  0
   -0.0052    0.8519    2.3697 C   0  0  0  0  0  4           0  0  0
   -1.6100   -0.8345    1.7462 C   0  0  0  0  0  4           0  0  0
    1.7859   -2.5132    0.0073 C   0  0  0  0  0  4           0  0  0
   -5.9399    0.5379    8.1548 C   0  0  0  0  0  4           0  0  0
    0.0000    0.0000    0.0000 C   0  0  0  0  0  4           0  0  0
    1.7789    2.5229   -0.0147 C   0  0  0  0  0  4           0  0  0
    2.5414    3.3901   -1.0112 C   0  0  0  0  0  4           0  0  0
    2.4471    2.9124   -2.4609 C   0  0  0  0  0  4           0  0  0
    3.2268    3.8178   -3.4011 C   0  0  0  0  0  4           0  0  0
  1 10  1  0     0  0
  2 11  1  0     0  0
  2 27  1  0     0  0
  3 26  1  0     0  0
  4  5  2  0     0  0
  4  6  1  0     0  0
  5  7  1  0     0  0
  6 12  1  0     0  0
  7 12  2  0     0  0
  8 13  1  0     0  0
  8 14  1  0     0  0
  8 28  1  0     0  0
  9 10  1  0     0  0
  9 13  2  0     0  0
 10 14  2  0     0  0
 11 19  1  0     0  0
 11 20  2  0     0  0
 12 15  1  0     0  0
 13 29  1  0     0  0
 14 26  1  0     0  0
 15 16  1  0     0  0
 15 21  2  0     0  0
 16 17  1  0     0  0
 16 19  2  0     0  0
 17 22  2  0     0  0
 17 23  1  0     0  0
 18 24  2  0     0  0
 18 25  1  0     0  0
 18 28  1  0     0  0
 20 21  1  0     0  0
 22 24  1  0     0  0
 23 25  2  0     0  0
 29 30  1  0     0  0
 30 31  1  0     0  0
 31 32  1  0     0  0
M  END
> <standard_type>
pIC50

> <# Confs.>
25

> <canonical_smiles>
ClC(N=C1CCCC)=C(CO)N1CC2=CC=C(C3=CC(OC)=CC=C3C4=NN=NN4)C=C2

> <standard_relation>
=

> <Publication_ID>
nan

> <predicted_activity_value>
7.102372908709558

> <actual_activity_value>
6.292429823902063

> <Compound>
12

> <standard_units>
nM

> hash
15917884378459634572

$$$$
12_
XXILIB    08252103443D 0   0.00000     0.00000

 32 35  0     1  0            999 V2000
    5.0102    1.4826   -0.0264 Cl  0  0  0  0  0  1           0  0  0
   -5.4247   -0.1066    6.8533 O   0  0  0  0  0  2           0  0  0
    1.6581    2.9298    1.3453 O   0  0  0  0  0  2           0  0  0
    2.2261    0.8623    6.0935 N   0  0  0  0  0  3           0  0  0
    2.3153   -0.3108    6.7051 N   0  0  0  0  0  3           0  0  0
    0.9119    1.0954    5.9793 N   0  0  0  0  0  3           0  0  0
    1.0679   -0.8224    6.9793 N   0  0  0  0  0  3           0  0  0
    1.4520    0.0000    0.0000 N   0  0  0  0  0  3           0  0  0
    3.5373   -0.7678   -0.0096 N   0  0  0  0  0  3           0  0  0
    3.5506    0.6018   -0.0167 C   0  0  0  0  0  4           0  0  0
   -4.0532   -0.0796    6.8472 C   0  0  0  0  0  4           0  0  0
    0.2008    0.0596    6.5225 C   0  0  0  0  0  4           0  0  0
    2.2665   -1.1166    0.0000 C   0  0  0  0  0  4           0  0  0
    2.2672    1.1152   -0.0106 C   0  0  0  0  0  4           0  0  0
   -1.2398   -0.0078    6.5589 C   0  0  0  0  0  4           0  0  0
   -2.0600    0.0030    5.4047 C   0  0  0  0  0  4           0  0  0
   -1.5399    0.0011    4.0428 C   0  0  0  0  0  4           0  0  0
   -0.5416    0.0000    1.3968 C   0  0  0  0  0  4           0  0  0
   -3.4620   -0.0240    5.5800 C   0  0  0  0  0  4           0  0  0
   -3.2372   -0.1065    7.9734 C   0  0  0  0  0  4           0  0  0
   -1.8484   -0.0729    7.8271 C   0  0  0  0  0  4           0  0  0
   -1.2953   -1.2044    3.3685 C   0  0  0  0  0  4           0  0  0
   -1.2711    1.2057    3.3766 C   0  0  0  0  0  4           0  0  0
   -0.7995   -1.2048    2.0616 C   0  0  0  0  0  4           0  0  0
   -0.7758    1.2051    2.0697 C   0  0  0  0  0  4           0  0  0
    1.7859    2.5132   -0.0073 C   0  0  0  0  0  4           0  0  0
   -5.8992   -0.1627    8.1992 C   0  0  0  0  0  4           0  0  0
    0.0000    0.0000    0.0000 C   0  0  0  0  0  4           0  0  0
    1.7789   -2.5229    0.0147 C   0  0  0  0  0  4           0  0  0
    2.5221   -3.4043   -0.9841 C   0  0  0  0  0  4           0  0  0
    2.0555   -4.8605   -1.0057 C   0  0  0  0  0  4           0  0  0
    2.8342   -5.6833   -2.0197 C   0  0  0  0  0  4           0  0  0
  1 10  1  0     0  0
  2 11  1  0     0  0
  2 27  1  0     0  0
  3 26  1  0     0  0
  4  5  2  0     0  0
  4  6  1  0     0  0
  5  7  1  0     0  0
  6 12  1  0     0  0
  7 12  2  0     0  0
  8 13  1  0     0  0
  8 14  1  0     0  0
  8 28  1  0     0  0
  9 10  1  0     0  0
  9 13  2  0     0  0
 10 14  2  0     0  0
 11 19  1  0     0  0
 11 20  2  0     0  0
 12 15  1  0     0  0
 13 29  1  0     0  0
 14 26  1  0     0  0
 15 16  1  0     0  0
 15 21  2  0     0  0
 16 17  1  0     0  0
 16 19  2  0     0  0
 17 22  2  0     0  0
 17 23  1  0     0  0
 18 24  2  0     0  0
 18 25  1  0     0  0
 18 28  1  0     0  0
 20 21  1  0     0  0
 22 24  1  0     0  0
 23 25  2  0     0  0
 29 30  1  0     0  0
 30 31  1  0     0  0
 31 32  1  0     0  0
M  END
> <standard_type>
pIC50

> <# Confs.>
25

> <canonical_smiles>
ClC(N=C1CCCC)=C(CO)N1CC2=CC=C(C3=CC(OC)=CC=C3C4=NN=NN4)C=C2

> <standard_relation>
=

> <Publication_ID>
nan

> <predicted_activity_value>
7.102372908709558

> <actual_activity_value>
6.292429823902063

> <Compound>
12

> <standard_units>
nM

> hash
15917884378459634572

$$$$
8_
XXILIB    08252103443D 0   0.00000     0.00000

 34 36  0     1  0            999 V2000
    5.0035   -1.4900   -0.1073 Cl  0  0  0  0  0  1           0  0  0
   -3.6248    3.2512    4.6733 S   0  0  1  0  0  6           0  0  0
   -3.4815    5.0158    6.5723 F   0  0  0  0  0  1           0  0  0
   -5.4167    4.8874    5.5731 F   0  0  0  0  0  1           0  0  0
   -4.8125    3.3342    6.9805 F   0  0  0  0  0  1           0  0  0
   -3.1792    4.2034    3.6747 O   0  0  0  0  0  2           0  0  0
   -4.5498    2.1892    4.3263 O   0  0  0  0  0  2           0  0  0
    1.6077   -2.8801   -1.4068 O   0  0  0  0  0  2           0  0  0
    1.4517   -0.0000   -0.0000 N   0  0  0  0  0  3           0  0  0
    3.5366    0.7655   -0.0328 N   0  0  0  0  0  3           0  0  0
   -2.2866    2.5588    5.4653 N   0  0  0  0  0  3           0  0  0
    3.5479   -0.6046   -0.0559 C   0  0  0  0  0  4           0  0  0
    2.2661    1.1153    0.0000 C   0  0  0  0  0  4           0  0  0
    2.2641   -1.1156   -0.0350 C   0  0  0  0  0  4           0  0  0
   -2.3813    1.2782    6.1014 C   0  0  0  0  0  4           0  0  0
   -2.0995    0.0802    5.4050 C   0  0  0  0  0  4           0  0  0
   -1.5655    0.0477    4.0332 C   0  0  0  0  0  4           0  0  0
   -0.5417    0.0000    1.3969 C   0  0  0  0  0  4           0  0  0
   -2.8811    1.2517    7.4128 C   0  0  0  0  0  4           0  0  0
   -2.3294   -1.1307    6.0908 C   0  0  0  0  0  4           0  0  0
   -2.4289    0.0217    2.9279 C   0  0  0  0  0  4           0  0  0
   -0.1822    0.0490    3.8002 C   0  0  0  0  0  4           0  0  0
   -1.9230    0.0000    1.6250 C   0  0  0  0  0  4           0  0  0
    0.3240    0.0290    2.4974 C   0  0  0  0  0  4           0  0  0
   -3.0903    0.0387    8.0618 C   0  0  0  0  0  4           0  0  0
   -2.8153   -1.1526    7.4013 C   0  0  0  0  0  4           0  0  0
   -4.3601    4.1559    6.0027 C   0  0  1  0  0  4           0  0  0
    1.7749   -2.5133   -0.0435 C   0  0  0  0  0  4           0  0  0
    1.1370   -4.2153   -1.5372 C   0  0  0  0  0  4           0  0  0
    0.0000    0.0000    0.0000 C   0  0  0  0  0  4           0  0  0
    1.7762    2.5176    0.0390 C   0  0  0  0  0  4           0  0  0
    1.5567    3.0679   -1.3655 C   0  0  0  0  0  4           0  0  0
    1.0511    4.5103   -1.4107 C   0  0  0  0  0  4           0  0  0
    0.8446    5.0228   -2.8281 C   0  0  0  0  0  4           0  0  0
  1 12  1  0     0  0
  2  6  2  0     0  0
  2  7  2  0     0  0
  2 11  1  0     0  0
  2 27  1  0     0  0
  3 27  1  0     0  0
  4 27  1  0     0  0
  5 27  1  0     0  0
  8 28  1  0     0  0
  8 29  1  0     0  0
  9 13  1  0     0  0
  9 14  1  0     0  0
  9 30  1  0     0  0
 10 12  1  0     0  0
 10 13  2  0     0  0
 11 15  1  0     0  0
 12 14  2  0     0  0
 13 31  1  0     0  0
 14 28  1  0     0  0
 15 16  1  0     0  0
 15 19  2  0     0  0
 16 17  1  0     0  0
 16 20  2  0     0  0
 17 21  2  0     0  0
 17 22  1  0     0  0
 18 23  2  0     0  0
 18 24  1  0     0  0
 18 30  1  0     0  0
 19 25  1  0     0  0
 20 26  1  0     0  0
 21 23  1  0     0  0
 22 24  2  0     0  0
 25 26  2  0     0  0
 31 32  1  0     0  0
 32 33  1  0     0  0
 33 34  1  0     0  0
M  END
> <standard_type>
pIC50

> <# Confs.>
25

> <canonical_smiles>
ClC(N=C1CCCC)=C(COC)N1CC2=CC=C(C3=CC=CC=C3NS(=O)(C(F)(F)F)=O)C=C2

> <standard_relation>
=

> <Publication_ID>
nan

> <predicted_activity_value>
7.0

> <actual_activity_value>
6.721246399047171

> <Compound>
8

> <standard_units>
nM

> hash
5153756069946378517

$$$$
8_
XXILIB    08252103443D 0   0.00000     0.00000

 34 36  0     1  0            999 V2000
    5.0035   -1.4900   -0.1073 Cl  0  0  0  0  0  1           0  0  0
   -3.6248    3.2512    4.6733 S   0  0  1  0  0  6           0  0  0
   -3.4815    5.0158    6.5723 F   0  0  0  0  0  1           0  0  0
   -5.4167    4.8874    5.5731 F   0  0  0  0  0  1           0  0  0
   -4.8125    3.3342    6.9805 F   0  0  0  0  0  1           0  0  0
   -3.1792    4.2034    3.6747 O   0  0  0  0  0  2           0  0  0
   -4.5498    2.1892    4.3263 O   0  0  0  0  0  2           0  0  0
    1.6077   -2.8801   -1.4068 O   0  0  0  0  0  2           0  0  0
    1.4517   -0.0000   -0.0000 N   0  0  0  0  0  3           0  0  0
    3.5366    0.7655   -0.0328 N   0  0  0  0  0  3           0  0  0
   -2.2866    2.5588    5.4653 N   0  0  0  0  0  3           0  0  0
    3.5479   -0.6046   -0.0559 C   0  0  0  0  0  4           0  0  0
    2.2661    1.1153    0.0000 C   0  0  0  0  0  4           0  0  0
    2.2641   -1.1156   -0.0350 C   0  0  0  0  0  4           0  0  0
   -2.3813    1.2782    6.1014 C   0  0  0  0  0  4           0  0  0
   -2.0995    0.0802    5.4050 C   0  0  0  0  0  4           0  0  0
   -1.5655    0.0477    4.0332 C   0  0  0  0  0  4           0  0  0
   -0.5417    0.0000    1.3969 C   0  0  0  0  0  4           0  0  0
   -2.8811    1.2517    7.4128 C   0  0  0  0  0  4           0  0  0
   -2.3294   -1.1307    6.0908 C   0  0  0  0  0  4           0  0  0
   -2.4289    0.0217    2.9279 C   0  0  0  0  0  4           0  0  0
   -0.1822    0.0490    3.8002 C   0  0  0  0  0  4           0  0  0
   -1.9230    0.0000    1.6250 C   0  0  0  0  0  4           0  0  0
    0.3240    0.0290    2.4974 C   0  0  0  0  0  4           0  0  0
   -3.0903    0.0387    8.0618 C   0  0  0  0  0  4           0  0  0
   -2.8153   -1.1526    7.4013 C   0  0  0  0  0  4           0  0  0
   -4.3601    4.1559    6.0027 C   0  0  1  0  0  4           0  0  0
    1.7749   -2.5133   -0.0435 C   0  0  0  0  0  4           0  0  0
    1.1370   -4.2153   -1.5372 C   0  0  0  0  0  4           0  0  0
    0.0000    0.0000    0.0000 C   0  0  0  0  0  4           0  0  0
    1.7762    2.5176    0.0390 C   0  0  0  0  0  4           0  0  0
    1.5567    3.0679   -1.3655 C   0  0  0  0  0  4           0  0  0
    2.8092    3.0883   -2.2425 C   0  0  0  0  0  4           0  0  0
    2.5499    3.6435   -3.6349 C   0  0  0  0  0  4           0  0  0
  1 12  1  0     0  0
  2  6  2  0     0  0
  2  7  2  0     0  0
  2 11  1  0     0  0
  2 27  1  0     0  0
  3 27  1  0     0  0
  4 27  1  0     0  0
  5 27  1  0     0  0
  8 28  1  0     0  0
  8 29  1  0     0  0
  9 13  1  0     0  0
  9 14  1  0     0  0
  9 30  1  0     0  0
 10 12  1  0     0  0
 10 13  2  0     0  0
 11 15  1  0     0  0
 12 14  2  0     0  0
 13 31  1  0     0  0
 14 28  1  0     0  0
 15 16  1  0     0  0
 15 19  2  0     0  0
 16 17  1  0     0  0
 16 20  2  0     0  0
 17 21  2  0     0  0
 17 22  1  0     0  0
 18 23  2  0     0  0
 18 24  1  0     0  0
 18 30  1  0     0  0
 19 25  1  0     0  0
 20 26  1  0     0  0
 21 23  1  0     0  0
 22 24  2  0     0  0
 25 26  2  0     0  0
 31 32  1  0     0  0
 32 33  1  0     0  0
 33 34  1  0     0  0
M  END
> <standard_type>
pIC50

> <# Confs.>
25

> <canonical_smiles>
ClC(N=C1CCCC)=C(COC)N1CC2=CC=C(C3=CC=CC=C3NS(=O)(C(F)(F)F)=O)C=C2

> <standard_relation>
=

> <Publication_ID>
nan

> <predicted_activity_value>
7.0

> <actual_activity_value>
6.721246399047171

> <Compound>
8

> <standard_units>
nM

> hash
5153756069946378517

$$$$
8_
XXILIB    08252103443D 0   0.00000     0.00000

 34 36  0     1  0            999 V2000
    5.0035    1.4900    0.1073 Cl  0  0  0  0  0  1           0  0  0
   -3.6248    3.2512    4.6733 S   0  0  1  0  0  6           0  0  0
   -3.4815    5.0158    6.5723 F   0  0  0  0  0  1           0  0  0
   -5.4167    4.8874    5.5731 F   0  0  0  0  0  1           0  0  0
   -4.8125    3.3342    6.9805 F   0  0  0  0  0  1           0  0  0
   -3.1792    4.2034    3.6747 O   0  0  0  0  0  2           0  0  0
   -4.5498    2.1892    4.3263 O   0  0  0  0  0  2           0  0  0
    1.6717    2.9190   -1.3152 O   0  0  0  0  0  2           0  0  0
    1.4517    0.0000    0.0000 N   0  0  0  0  0  3           0  0  0
    3.5366   -0.7655    0.0328 N   0  0  0  0  0  3           0  0  0
   -2.2866    2.5588    5.4653 N   0  0  0  0  0  3           0  0  0
    3.5479    0.6046    0.0559 C   0  0  0  0  0  4           0  0  0
    2.2661   -1.1153    0.0000 C   0  0  0  0  0  4           0  0  0
    2.2641    1.1156    0.0350 C   0  0  0  0  0  4           0  0  0
   -2.3813    1.2782    6.1014 C   0  0  0  0  0  4           0  0  0
   -2.0995    0.0802    5.4050 C   0  0  0  0  0  4           0  0  0
   -1.5655    0.0477    4.0332 C   0  0  0  0  0  4           0  0  0
   -0.5417    0.0000    1.3969 C   0  0  0  0  0  4           0  0  0
   -2.8811    1.2517    7.4128 C   0  0  0  0  0  4           0  0  0
   -2.3294   -1.1307    6.0908 C   0  0  0  0  0  4           0  0  0
   -2.4289    0.0217    2.9279 C   0  0  0  0  0  4           0  0  0
   -0.1822    0.0490    3.8002 C   0  0  0  0  0  4           0  0  0
   -1.9230    0.0000    1.6250 C   0  0  0  0  0  4           0  0  0
    0.3240    0.0290    2.4974 C   0  0  0  0  0  4           0  0  0
   -3.0903    0.0387    8.0618 C   0  0  0  0  0  4           0  0  0
   -2.8153   -1.1526    7.4013 C   0  0  0  0  0  4           0  0  0
   -4.3601    4.1559    6.0027 C   0  0  1  0  0  4           0  0  0
    1.7749    2.5133    0.0435 C   0  0  0  0  0  4           0  0  0
    1.2067    4.2577   -1.4293 C   0  0  0  0  0  4           0  0  0
    0.0000    0.0000    0.0000 C   0  0  0  0  0  4           0  0  0
    1.7762   -2.5176   -0.0390 C   0  0  0  0  0  4           0  0  0
    1.6299   -3.0144   -1.4727 C   0  0  0  0  0  4           0  0  0
    1.1287   -4.4537   -1.5981 C   0  0  0  0  0  4           0  0  0
    0.9960   -4.9123   -3.0425 C   0  0  0  0  0  4           0  0  0
  1 12  1  0     0  0
  2  6  2  0     0  0
  2  7  2  0     0  0
  2 11  1  0     0  0
  2 27  1  0     0  0
  3 27  1  0     0  0
  4 27  1  0     0  0
  5 27  1  0     0  0
  8 28  1  0     0  0
  8 29  1  0     0  0
  9 13  1  0     0  0
  9 14  1  0     0  0
  9 30  1  0     0  0
 10 12  1  0     0  0
 10 13  2  0     0  0
 11 15  1  0     0  0
 12 14  2  0     0  0
 13 31  1  0     0  0
 14 28  1  0     0  0
 15 16  1  0     0  0
 15 19  2  0     0  0
 16 17  1  0     0  0
 16 20  2  0     0  0
 17 21  2  0     0  0
 17 22  1  0     0  0
 18 23  2  0     0  0
 18 24  1  0     0  0
 18 30  1  0     0  0
 19 25  1  0     0  0
 20 26  1  0     0  0
 21 23  1  0     0  0
 22 24  2  0     0  0
 25 26  2  0     0  0
 31 32  1  0     0  0
 32 33  1  0     0  0
 33 34  1  0     0  0
M  END
> <standard_type>
pIC50

> <# Confs.>
25

> <canonical_smiles>
ClC(N=C1CCCC)=C(COC)N1CC2=CC=C(C3=CC=CC=C3NS(=O)(C(F)(F)F)=O)C=C2

> <standard_relation>
=

> <Publication_ID>
nan

> <predicted_activity_value>
7.0

> <actual_activity_value>
6.721246399047171

> <Compound>
8

> <standard_units>
nM

> hash
5153756069946378517

$$$$
8_
XXILIB    08252103443D 0   0.00000     0.00000

 34 36  0     1  0            999 V2000
    5.0035   -1.4900   -0.1073 Cl  0  0  0  0  0  1           0  0  0
   -0.5319   -3.0934    6.0278 S   0  0  1  0  0  6           0  0  0
   -1.9491   -4.7805    7.4011 F   0  0  0  0  0  1           0  0  0
    0.1543   -4.6622    7.9684 F   0  0  0  0  0  1           0  0  0
   -1.2172   -3.0624    8.5318 F   0  0  0  0  0  1           0  0  0
   -0.2007   -4.0929    5.0310 O   0  0  0  0  0  2           0  0  0
    0.4013   -2.0319    6.3539 O   0  0  0  0  0  2           0  0  0
    1.6077   -2.8801   -1.4068 O   0  0  0  0  0  2           0  0  0
    1.4517   -0.0000   -0.0000 N   0  0  0  0  0  3           0  0  0
    3.5366    0.7655   -0.0328 N   0  0  0  0  0  3           0  0  0
   -2.0421   -2.3905    5.6778 N   0  0  0  0  0  3           0  0  0
    3.5479   -0.6046   -0.0559 C   0  0  0  0  0  4           0  0  0
    2.2661    1.1153    0.0000 C   0  0  0  0  0  4           0  0  0
    2.2641   -1.1156   -0.0350 C   0  0  0  0  0  4           0  0  0
   -2.3817   -1.0835    6.1573 C   0  0  0  0  0  4           0  0  0
   -2.0995    0.0802    5.4050 C   0  0  0  0  0  4           0  0  0
   -1.5655    0.0477    4.0332 C   0  0  0  0  0  4           0  0  0
   -0.5417    0.0000    1.3969 C   0  0  0  0  0  4           0  0  0
   -2.8993   -0.9950    7.4590 C   0  0  0  0  0  4           0  0  0
   -2.3742    1.3218    6.0153 C   0  0  0  0  0  4           0  0  0
   -2.4289    0.0217    2.9279 C   0  0  0  0  0  4           0  0  0
   -0.1822    0.0490    3.8002 C   0  0  0  0  0  4           0  0  0
   -1.9230    0.0000    1.6250 C   0  0  0  0  0  4           0  0  0
    0.3240    0.0290    2.4974 C   0  0  0  0  0  4           0  0  0
   -3.1643    0.2469    8.0281 C   0  0  0  0  0  4           0  0  0
   -2.9014    1.4054    7.3071 C   0  0  0  0  0  4           0  0  0
   -0.9030   -3.9307    7.5404 C   0  0  1  0  0  4           0  0  0
    1.7749   -2.5133   -0.0435 C   0  0  0  0  0  4           0  0  0
    1.1370   -4.2153   -1.5372 C   0  0  0  0  0  4           0  0  0
    0.0000    0.0000   -0.0000 C   0  0  0  0  0  4           0  0  0
    1.7762    2.5176    0.0390 C   0  0  0  0  0  4           0  0  0
    1.5567    3.0679   -1.3655 C   0  0  0  0  0  4           0  0  0
    1.0511    4.5103   -1.4107 C   0  0  0  0  0  4           0  0  0
    0.8446    5.0228   -2.8281 C   0  0  0  0  0  4           0  0  0
  1 12  1  0     0  0
  2  6  2  0     0  0
  2  7  2  0     0  0
  2 11  1  0     0  0
  2 27  1  0     0  0
  3 27  1  0     0  0
  4 27  1  0     0  0
  5 27  1  0     0  0
  8 28  1  0     0  0
  8 29  1  0     0  0
  9 13  1  0     0  0
  9 14  1  0     0  0
  9 30  1  0     0  0
 10 12  1  0     0  0
 10 13  2  0     0  0
 11 15  1  0     0  0
 12 14  2  0     0  0
 13 31  1  0     0  0
 14 28  1  0     0  0
 15 16  1  0     0  0
 15 19  2  0     0  0
 16 17  1  0     0  0
 16 20  2  0     0  0
 17 21  2  0     0  0
 17 22  1  0     0  0
 18 23  2  0     0  0
 18 24  1  0     0  0
 18 30  1  0     0  0
 19 25  1  0     0  0
 20 26  1  0     0  0
 21 23  1  0     0  0
 22 24  2  0     0  0
 25 26  2  0     0  0
 31 32  1  0     0  0
 32 33  1  0     0  0
 33 34  1  0     0  0
M  END
> <standard_type>
pIC50

> <# Confs.>
25

> <canonical_smiles>
ClC(N=C1CCCC)=C(COC)N1CC2=CC=C(C3=CC=CC=C3NS(=O)(C(F)(F)F)=O)C=C2

> <standard_relation>
=

> <Publication_ID>
nan

> <predicted_activity_value>
7.0

> <actual_activity_value>
6.721246399047171

> <Compound>
8

> <standard_units>
nM

> hash
5153756069946378517

$$$$
8_
XXILIB    08252103443D 0   0.00000     0.00000

 34 36  0     1  0            999 V2000
    5.0035   -1.4900   -0.1073 Cl  0  0  0  0  0  1           0  0  0
   -3.6248    3.2512    4.6733 S   0  0  1  0  0  6           0  0  0
   -3.4815    5.0158    6.5723 F   0  0  0  0  0  1           0  0  0
   -5.4167    4.8874    5.5731 F   0  0  0  0  0  1           0  0  0
   -4.8125    3.3342    6.9805 F   0  0  0  0  0  1           0  0  0
   -3.1792    4.2034    3.6747 O   0  0  0  0  0  2           0  0  0
   -4.5498    2.1892    4.3263 O   0  0  0  0  0  2           0  0  0
    1.6077   -2.8801   -1.4068 O   0  0  0  0  0  2           0  0  0
    1.4517   -0.0000   -0.0000 N   0  0  0  0  0  3           0  0  0
    3.5366    0.7655   -0.0328 N   0  0  0  0  0  3           0  0  0
   -2.2866    2.5588    5.4653 N   0  0  0  0  0  3           0  0  0
    3.5479   -0.6046   -0.0559 C   0  0  0  0  0  4           0  0  0
    2.2661    1.1153    0.0000 C   0  0  0  0  0  4           0  0  0
    2.2641   -1.1156   -0.0350 C   0  0  0  0  0  4           0  0  0
   -2.3813    1.2782    6.1014 C   0  0  0  0  0  4           0  0  0
   -2.0995    0.0802    5.4050 C   0  0  0  0  0  4           0  0  0
   -1.5655    0.0477    4.0332 C   0  0  0  0  0  4           0  0  0
   -0.5417    0.0000    1.3969 C   0  0  0  0  0  4           0  0  0
   -2.8811    1.2517    7.4128 C   0  0  0  0  0  4           0  0  0
   -2.3294   -1.1307    6.0908 C   0  0  0  0  0  4           0  0  0
   -2.4289    0.0217    2.9279 C   0  0  0  0  0  4           0  0  0
   -0.1822    0.0490    3.8002 C   0  0  0  0  0  4           0  0  0
   -1.9230    0.0000    1.6250 C   0  0  0  0  0  4           0  0  0
    0.3240    0.0290    2.4974 C   0  0  0  0  0  4           0  0  0
   -3.0903    0.0387    8.0618 C   0  0  0  0  0  4           0  0  0
   -2.8153   -1.1526    7.4013 C   0  0  0  0  0  4           0  0  0
   -4.3601    4.1559    6.0027 C   0  0  1  0  0  4           0  0  0
    1.7749   -2.5133   -0.0435 C   0  0  0  0  0  4           0  0  0
    1.1370   -4.2153   -1.5372 C   0  0  0  0  0  4           0  0  0
    0.0000    0.0000    0.0000 C   0  0  0  0  0  4           0  0  0
    1.7762    2.5176    0.0390 C   0  0  0  0  0  4           0  0  0
    2.9333    3.5100    0.0279 C   0  0  0  0  0  4           0  0  0
    2.5104    4.9790    0.0664 C   0  0  0  0  0  4           0  0  0
    3.6918    5.9373    0.0540 C   0  0  0  0  0  4           0  0  0
  1 12  1  0     0  0
  2  6  2  0     0  0
  2  7  2  0     0  0
  2 11  1  0     0  0
  2 27  1  0     0  0
  3 27  1  0     0  0
  4 27  1  0     0  0
  5 27  1  0     0  0
  8 28  1  0     0  0
  8 29  1  0     0  0
  9 13  1  0     0  0
  9 14  1  0     0  0
  9 30  1  0     0  0
 10 12  1  0     0  0
 10 13  2  0     0  0
 11 15  1  0     0  0
 12 14  2  0     0  0
 13 31  1  0     0  0
 14 28  1  0     0  0
 15 16  1  0     0  0
 15 19  2  0     0  0
 16 17  1  0     0  0
 16 20  2  0     0  0
 17 21  2  0     0  0
 17 22  1  0     0  0
 18 23  2  0     0  0
 18 24  1  0     0  0
 18 30  1  0     0  0
 19 25  1  0     0  0
 20 26  1  0     0  0
 21 23  1  0     0  0
 22 24  2  0     0  0
 25 26  2  0     0  0
 31 32  1  0     0  0
 32 33  1  0     0  0
 33 34  1  0     0  0
M  END
> <standard_type>
pIC50

> <# Confs.>
25

> <canonical_smiles>
ClC(N=C1CCCC)=C(COC)N1CC2=CC=C(C3=CC=CC=C3NS(=O)(C(F)(F)F)=O)C=C2

> <standard_relation>
=

> <Publication_ID>
nan

> <predicted_activity_value>
7.0

> <actual_activity_value>
6.721246399047171

> <Compound>
8

> <standard_units>
nM

> hash
5153756069946378517

$$$$
8_
XXILIB    08252103443D 0   0.00000     0.00000

 34 36  0     1  0            999 V2000
    5.0035    1.4900    0.1073 Cl  0  0  0  0  0  1           0  0  0
   -3.6248    3.2512    4.6733 S   0  0  1  0  0  6           0  0  0
   -3.4815    5.0158    6.5723 F   0  0  0  0  0  1           0  0  0
   -5.4167    4.8874    5.5731 F   0  0  0  0  0  1           0  0  0
   -4.8125    3.3342    6.9805 F   0  0  0  0  0  1           0  0  0
   -3.1792    4.2034    3.6747 O   0  0  0  0  0  2           0  0  0
   -4.5498    2.1892    4.3263 O   0  0  0  0  0  2           0  0  0
    1.6717    2.9190   -1.3152 O   0  0  0  0  0  2           0  0  0
    1.4517    0.0000    0.0000 N   0  0  0  0  0  3           0  0  0
    3.5366   -0.7655    0.0328 N   0  0  0  0  0  3           0  0  0
   -2.2866    2.5588    5.4653 N   0  0  0  0  0  3           0  0  0
    3.5479    0.6046    0.0559 C   0  0  0  0  0  4           0  0  0
    2.2661   -1.1153    0.0000 C   0  0  0  0  0  4           0  0  0
    2.2641    1.1156    0.0350 C   0  0  0  0  0  4           0  0  0
   -2.3813    1.2782    6.1014 C   0  0  0  0  0  4           0  0  0
   -2.0995    0.0802    5.4050 C   0  0  0  0  0  4           0  0  0
   -1.5655    0.0477    4.0332 C   0  0  0  0  0  4           0  0  0
   -0.5417    0.0000    1.3969 C   0  0  0  0  0  4           0  0  0
   -2.8811    1.2517    7.4128 C   0  0  0  0  0  4           0  0  0
   -2.3294   -1.1307    6.0908 C   0  0  0  0  0  4           0  0  0
   -2.4289    0.0217    2.9279 C   0  0  0  0  0  4           0  0  0
   -0.1822    0.0490    3.8002 C   0  0  0  0  0  4           0  0  0
   -1.9230    0.0000    1.6250 C   0  0  0  0  0  4           0  0  0
    0.3240    0.0290    2.4974 C   0  0  0  0  0  4           0  0  0
   -3.0903    0.0387    8.0618 C   0  0  0  0  0  4           0  0  0
   -2.8153   -1.1526    7.4013 C   0  0  0  0  0  4           0  0  0
   -4.3601    4.1559    6.0027 C   0  0  1  0  0  4           0  0  0
    1.7749    2.5133    0.0435 C   0  0  0  0  0  4           0  0  0
    1.2067    4.2577   -1.4293 C   0  0  0  0  0  4           0  0  0
    0.0000    0.0000    0.0000 C   0  0  0  0  0  4           0  0  0
    1.7762   -2.5176   -0.0390 C   0  0  0  0  0  4           0  0  0
    1.6299   -3.0144   -1.4727 C   0  0  0  0  0  4           0  0  0
    2.9259   -3.0031   -2.2842 C   0  0  0  0  0  4           0  0  0
    2.7392   -3.5053   -3.7080 C   0  0  0  0  0  4           0  0  0
  1 12  1  0     0  0
  2  6  2  0     0  0
  2  7  2  0     0  0
  2 11  1  0     0  0
  2 27  1  0     0  0
  3 27  1  0     0  0
  4 27  1  0     0  0
  5 27  1  0     0  0
  8 28  1  0     0  0
  8 29  1  0     0  0
  9 13  1  0     0  0
  9 14  1  0     0  0
  9 30  1  0     0  0
 10 12  1  0     0  0
 10 13  2  0     0  0
 11 15  1  0     0  0
 12 14  2  0     0  0
 13 31  1  0     0  0
 14 28  1  0     0  0
 15 16  1  0     0  0
 15 19  2  0     0  0
 16 17  1  0     0  0
 16 20  2  0     0  0
 17 21  2  0     0  0
 17 22  1  0     0  0
 18 23  2  0     0  0
 18 24  1  0     0  0
 18 30  1  0     0  0
 19 25  1  0     0  0
 20 26  1  0     0  0
 21 23  1  0     0  0
 22 24  2  0     0  0
 25 26  2  0     0  0
 31 32  1  0     0  0
 32 33  1  0     0  0
 33 34  1  0     0  0
M  END
> <standard_type>
pIC50

> <# Confs.>
25

> <canonical_smiles>
ClC(N=C1CCCC)=C(COC)N1CC2=CC=C(C3=CC=CC=C3NS(=O)(C(F)(F)F)=O)C=C2

> <standard_relation>
=

> <Publication_ID>
nan

> <predicted_activity_value>
7.0

> <actual_activity_value>
6.721246399047171

> <Compound>
8

> <standard_units>
nM

> hash
5153756069946378517

$$$$
8_
XXILIB    08252103443D 0   0.00000     0.00000

 34 36  0     1  0            999 V2000
    5.0035    1.4900    0.1073 Cl  0  0  0  0  0  1           0  0  0
   -3.6248    3.2512    4.6733 S   0  0  1  0  0  6           0  0  0
   -3.4815    5.0158    6.5723 F   0  0  0  0  0  1           0  0  0
   -5.4167    4.8874    5.5731 F   0  0  0  0  0  1           0  0  0
   -4.8125    3.3342    6.9805 F   0  0  0  0  0  1           0  0  0
   -3.1792    4.2034    3.6747 O   0  0  0  0  0  2           0  0  0
   -4.5498    2.1892    4.3263 O   0  0  0  0  0  2           0  0  0
    1.6077    2.8801    1.4068 O   0  0  0  0  0  2           0  0  0
    1.4517    0.0000    0.0000 N   0  0  0  0  0  3           0  0  0
    3.5366   -0.7655    0.0328 N   0  0  0  0  0  3           0  0  0
   -2.2866    2.5588    5.4653 N   0  0  0  0  0  3           0  0  0
    3.5479    0.6046    0.0559 C   0  0  0  0  0  4           0  0  0
    2.2661   -1.1153    0.0000 C   0  0  0  0  0  4           0  0  0
    2.2641    1.1156    0.0350 C   0  0  0  0  0  4           0  0  0
   -2.3813    1.2782    6.1014 C   0  0  0  0  0  4           0  0  0
   -2.0995    0.0802    5.4050 C   0  0  0  0  0  4           0  0  0
   -1.5655    0.0477    4.0332 C   0  0  0  0  0  4           0  0  0
   -0.5417    0.0000    1.3969 C   0  0  0  0  0  4           0  0  0
   -2.8811    1.2517    7.4128 C   0  0  0  0  0  4           0  0  0
   -2.3294   -1.1307    6.0908 C   0  0  0  0  0  4           0  0  0
   -2.4289    0.0217    2.9279 C   0  0  0  0  0  4           0  0  0
   -0.1822    0.0490    3.8002 C   0  0  0  0  0  4           0  0  0
   -1.9230    0.0000    1.6250 C   0  0  0  0  0  4           0  0  0
    0.3240    0.0290    2.4974 C   0  0  0  0  0  4           0  0  0
   -3.0903    0.0387    8.0618 C   0  0  0  0  0  4           0  0  0
   -2.8153   -1.1526    7.4013 C   0  0  0  0  0  4           0  0  0
   -4.3601    4.1559    6.0027 C   0  0  1  0  0  4           0  0  0
    1.7749    2.5133    0.0435 C   0  0  0  0  0  4           0  0  0
    1.1370    4.2153    1.5372 C   0  0  0  0  0  4           0  0  0
    0.0000    0.0000    0.0000 C   0  0  0  0  0  4           0  0  0
    1.7762   -2.5176   -0.0390 C   0  0  0  0  0  4           0  0  0
    1.6299   -3.0144   -1.4727 C   0  0  0  0  0  4           0  0  0
    1.1287   -4.4537   -1.5981 C   0  0  0  0  0  4           0  0  0
    0.9960   -4.9123   -3.0425 C   0  0  0  0  0  4           0  0  0
  1 12  1  0     0  0
  2  6  2  0     0  0
  2  7  2  0     0  0
  2 11  1  0     0  0
  2 27  1  0     0  0
  3 27  1  0     0  0
  4 27  1  0     0  0
  5 27  1  0     0  0
  8 28  1  0     0  0
  8 29  1  0     0  0
  9 13  1  0     0  0
  9 14  1  0     0  0
  9 30  1  0     0  0
 10 12  1  0     0  0
 10 13  2  0     0  0
 11 15  1  0     0  0
 12 14  2  0     0  0
 13 31  1  0     0  0
 14 28  1  0     0  0
 15 16  1  0     0  0
 15 19  2  0     0  0
 16 17  1  0     0  0
 16 20  2  0     0  0
 17 21  2  0     0  0
 17 22  1  0     0  0
 18 23  2  0     0  0
 18 24  1  0     0  0
 18 30  1  0     0  0
 19 25  1  0     0  0
 20 26  1  0     0  0
 21 23  1  0     0  0
 22 24  2  0     0  0
 25 26  2  0     0  0
 31 32  1  0     0  0
 32 33  1  0     0  0
 33 34  1  0     0  0
M  END
> <standard_type>
pIC50

> <# Confs.>
25

> <canonical_smiles>
ClC(N=C1CCCC)=C(COC)N1CC2=CC=C(C3=CC=CC=C3NS(=O)(C(F)(F)F)=O)C=C2

> <standard_relation>
=

> <Publication_ID>
nan

> <predicted_activity_value>
7.0

> <actual_activity_value>
6.721246399047171

> <Compound>
8

> <standard_units>
nM

> hash
5153756069946378517

$$$$
8_
XXILIB    08252103443D 0   0.00000     0.00000

 34 36  0     1  0            999 V2000
    5.0035   -1.4900   -0.1073 Cl  0  0  0  0  0  1           0  0  0
   -0.5319   -3.0934    6.0278 S   0  0  1  0  0  6           0  0  0
   -1.9491   -4.7805    7.4011 F   0  0  0  0  0  1           0  0  0
    0.1543   -4.6622    7.9684 F   0  0  0  0  0  1           0  0  0
   -1.2172   -3.0624    8.5318 F   0  0  0  0  0  1           0  0  0
   -0.2007   -4.0929    5.0310 O   0  0  0  0  0  2           0  0  0
    0.4013   -2.0319    6.3539 O   0  0  0  0  0  2           0  0  0
    1.6077   -2.8801   -1.4068 O   0  0  0  0  0  2           0  0  0
    1.4517   -0.0000   -0.0000 N   0  0  0  0  0  3           0  0  0
    3.5366    0.7655   -0.0328 N   0  0  0  0  0  3           0  0  0
   -2.0421   -2.3905    5.6778 N   0  0  0  0  0  3           0  0  0
    3.5479   -0.6046   -0.0559 C   0  0  0  0  0  4           0  0  0
    2.2661    1.1153    0.0000 C   0  0  0  0  0  4           0  0  0
    2.2641   -1.1156   -0.0350 C   0  0  0  0  0  4           0  0  0
   -2.3817   -1.0835    6.1573 C   0  0  0  0  0  4           0  0  0
   -2.0995    0.0802    5.4050 C   0  0  0  0  0  4           0  0  0
   -1.5655    0.0477    4.0332 C   0  0  0  0  0  4           0  0  0
   -0.5417    0.0000    1.3969 C   0  0  0  0  0  4           0  0  0
   -2.8993   -0.9950    7.4590 C   0  0  0  0  0  4           0  0  0
   -2.3742    1.3218    6.0153 C   0  0  0  0  0  4           0  0  0
   -2.4289    0.0217    2.9279 C   0  0  0  0  0  4           0  0  0
   -0.1822    0.0490    3.8002 C   0  0  0  0  0  4           0  0  0
   -1.9230    0.0000    1.6250 C   0  0  0  0  0  4           0  0  0
    0.3240    0.0290    2.4974 C   0  0  0  0  0  4           0  0  0
   -3.1643    0.2469    8.0281 C   0  0  0  0  0  4           0  0  0
   -2.9014    1.4054    7.3071 C   0  0  0  0  0  4           0  0  0
   -0.9030   -3.9307    7.5404 C   0  0  1  0  0  4           0  0  0
    1.7749   -2.5133   -0.0435 C   0  0  0  0  0  4           0  0  0
    1.1370   -4.2153   -1.5372 C   0  0  0  0  0  4           0  0  0
    0.0000    0.0000   -0.0000 C   0  0  0  0  0  4           0  0  0
    1.7762    2.5176    0.0390 C   0  0  0  0  0  4           0  0  0
    1.5567    3.0679   -1.3655 C   0  0  0  0  0  4           0  0  0
    2.8092    3.0883   -2.2425 C   0  0  0  0  0  4           0  0  0
    2.5499    3.6435   -3.6349 C   0  0  0  0  0  4           0  0  0
  1 12  1  0     0  0
  2  6  2  0     0  0
  2  7  2  0     0  0
  2 11  1  0     0  0
  2 27  1  0     0  0
  3 27  1  0     0  0
  4 27  1  0     0  0
  5 27  1  0     0  0
  8 28  1  0     0  0
  8 29  1  0     0  0
  9 13  1  0     0  0
  9 14  1  0     0  0
  9 30  1  0     0  0
 10 12  1  0     0  0
 10 13  2  0     0  0
 11 15  1  0     0  0
 12 14  2  0     0  0
 13 31  1  0     0  0
 14 28  1  0     0  0
 15 16  1  0     0  0
 15 19  2  0     0  0
 16 17  1  0     0  0
 16 20  2  0     0  0
 17 21  2  0     0  0
 17 22  1  0     0  0
 18 23  2  0     0  0
 18 24  1  0     0  0
 18 30  1  0     0  0
 19 25  1  0     0  0
 20 26  1  0     0  0
 21 23  1  0     0  0
 22 24  2  0     0  0
 25 26  2  0     0  0
 31 32  1  0     0  0
 32 33  1  0     0  0
 33 34  1  0     0  0
M  END
> <standard_type>
pIC50

> <# Confs.>
25

> <canonical_smiles>
ClC(N=C1CCCC)=C(COC)N1CC2=CC=C(C3=CC=CC=C3NS(=O)(C(F)(F)F)=O)C=C2

> <standard_relation>
=

> <Publication_ID>
nan

> <predicted_activity_value>
7.0

> <actual_activity_value>
6.721246399047171

> <Compound>
8

> <standard_units>
nM

> hash
5153756069946378517

$$$$
8_
XXILIB    08252103443D 0   0.00000     0.00000

 34 36  0     1  0            999 V2000
    5.0035   -1.4900   -0.1073 Cl  0  0  0  0  0  1           0  0  0
   -3.6248    3.2512    4.6733 S   0  0  1  0  0  6           0  0  0
   -3.4815    5.0158    6.5723 F   0  0  0  0  0  1           0  0  0
   -5.4167    4.8874    5.5731 F   0  0  0  0  0  1           0  0  0
   -4.8125    3.3342    6.9805 F   0  0  0  0  0  1           0  0  0
   -3.1792    4.2034    3.6747 O   0  0  0  0  0  2           0  0  0
   -4.5498    2.1892    4.3263 O   0  0  0  0  0  2           0  0  0
    1.6077   -2.8801   -1.4068 O   0  0  0  0  0  2           0  0  0
    1.4517   -0.0000   -0.0000 N   0  0  0  0  0  3           0  0  0
    3.5366    0.7655   -0.0328 N   0  0  0  0  0  3           0  0  0
   -2.2866    2.5588    5.4653 N   0  0  0  0  0  3           0  0  0
    3.5479   -0.6046   -0.0559 C   0  0  0  0  0  4           0  0  0
    2.2661    1.1153    0.0000 C   0  0  0  0  0  4           0  0  0
    2.2641   -1.1156   -0.0350 C   0  0  0  0  0  4           0  0  0
   -2.3813    1.2782    6.1014 C   0  0  0  0  0  4           0  0  0
   -2.0995    0.0802    5.4050 C   0  0  0  0  0  4           0  0  0
   -1.5655    0.0477    4.0332 C   0  0  0  0  0  4           0  0  0
   -0.5417    0.0000    1.3969 C   0  0  0  0  0  4           0  0  0
   -2.8811    1.2517    7.4128 C   0  0  0  0  0  4           0  0  0
   -2.3294   -1.1307    6.0908 C   0  0  0  0  0  4           0  0  0
   -2.4289    0.0217    2.9279 C   0  0  0  0  0  4           0  0  0
   -0.1822    0.0490    3.8002 C   0  0  0  0  0  4           0  0  0
   -1.9230    0.0000    1.6250 C   0  0  0  0  0  4           0  0  0
    0.3240    0.0290    2.4974 C   0  0  0  0  0  4           0  0  0
   -3.0903    0.0387    8.0618 C   0  0  0  0  0  4           0  0  0
   -2.8153   -1.1526    7.4013 C   0  0  0  0  0  4           0  0  0
   -4.3601    4.1559    6.0027 C   0  0  1  0  0  4           0  0  0
    1.7749   -2.5133   -0.0435 C   0  0  0  0  0  4           0  0  0
    1.1370   -4.2153   -1.5372 C   0  0  0  0  0  4           0  0  0
    0.0000    0.0000    0.0000 C   0  0  0  0  0  4           0  0  0
    1.7762    2.5176    0.0390 C   0  0  0  0  0  4           0  0  0
    2.5667    3.3538    1.0389 C   0  0  0  0  0  4           0  0  0
    2.5011    2.8492    2.4809 C   0  0  0  0  0  4           0  0  0
    3.3016    3.7090    3.4476 C   0  0  0  0  0  4           0  0  0
  1 12  1  0     0  0
  2  6  2  0     0  0
  2  7  2  0     0  0
  2 11  1  0     0  0
  2 27  1  0     0  0
  3 27  1  0     0  0
  4 27  1  0     0  0
  5 27  1  0     0  0
  8 28  1  0     0  0
  8 29  1  0     0  0
  9 13  1  0     0  0
  9 14  1  0     0  0
  9 30  1  0     0  0
 10 12  1  0     0  0
 10 13  2  0     0  0
 11 15  1  0     0  0
 12 14  2  0     0  0
 13 31  1  0     0  0
 14 28  1  0     0  0
 15 16  1  0     0  0
 15 19  2  0     0  0
 16 17  1  0     0  0
 16 20  2  0     0  0
 17 21  2  0     0  0
 17 22  1  0     0  0
 18 23  2  0     0  0
 18 24  1  0     0  0
 18 30  1  0     0  0
 19 25  1  0     0  0
 20 26  1  0     0  0
 21 23  1  0     0  0
 22 24  2  0     0  0
 25 26  2  0     0  0
 31 32  1  0     0  0
 32 33  1  0     0  0
 33 34  1  0     0  0
M  END
> <standard_type>
pIC50

> <# Confs.>
25

> <canonical_smiles>
ClC(N=C1CCCC)=C(COC)N1CC2=CC=C(C3=CC=CC=C3NS(=O)(C(F)(F)F)=O)C=C2

> <standard_relation>
=

> <Publication_ID>
nan

> <predicted_activity_value>
7.0

> <actual_activity_value>
6.721246399047171

> <Compound>
8

> <standard_units>
nM

> hash
5153756069946378517

$$$$
8_
XXILIB    08252103443D 0   0.00000     0.00000

 34 36  0     1  0            999 V2000
    5.0035    1.4900    0.1073 Cl  0  0  0  0  0  1           0  0  0
   -1.1721    3.3778    5.7795 S   0  0  1  0  0  6           0  0  0
   -0.1644    3.9876    8.0933 F   0  0  0  0  0  1           0  0  0
   -1.5866    5.4357    7.2932 F   0  0  0  0  0  1           0  0  0
   -2.3019    3.5443    8.1112 F   0  0  0  0  0  1           0  0  0
   -0.0998    4.0481    5.0701 O   0  0  0  0  0  2           0  0  0
   -2.5112    3.3258    5.2245 O   0  0  0  0  0  2           0  0  0
    1.6717    2.9190   -1.3152 O   0  0  0  0  0  2           0  0  0
    1.4517    0.0000    0.0000 N   0  0  0  0  0  3           0  0  0
    3.5366   -0.7655    0.0328 N   0  0  0  0  0  3           0  0  0
   -0.7032    1.7957    6.1970 N   0  0  0  0  0  3           0  0  0
    3.5479    0.6046    0.0559 C   0  0  0  0  0  4           0  0  0
    2.2661   -1.1153    0.0000 C   0  0  0  0  0  4           0  0  0
    2.2641    1.1156    0.0350 C   0  0  0  0  0  4           0  0  0
   -1.6765    0.7702    6.4308 C   0  0  0  0  0  4           0  0  0
   -2.1473   -0.0590    5.3865 C   0  0  0  0  0  4           0  0  0
   -1.5949   -0.0346    4.0218 C   0  0  0  0  0  4           0  0  0
   -0.5417    0.0000    1.3969 C   0  0  0  0  0  4           0  0  0
   -2.2335    0.6992    7.7172 C   0  0  0  0  0  4           0  0  0
   -3.1841   -0.9620    5.7012 C   0  0  0  0  0  4           0  0  0
   -0.5238   -0.8680    3.6667 C   0  0  0  0  0  4           0  0  0
   -2.1311    0.8168    3.0445 C   0  0  0  0  0  4           0  0  0
   -0.0045   -0.8523    2.3690 C   0  0  0  0  0  4           0  0  0
   -1.6131    0.8316    1.7462 C   0  0  0  0  0  4           0  0  0
   -3.2515   -0.2082    7.9943 C   0  0  0  0  0  4           0  0  0
   -3.7275   -1.0384    6.9868 C   0  0  0  0  0  4           0  0  0
   -1.3109    4.1120    7.3822 C   0  0  1  0  0  4           0  0  0
    1.7749    2.5133    0.0435 C   0  0  0  0  0  4           0  0  0
    1.2067    4.2577   -1.4293 C   0  0  0  0  0  4           0  0  0
    0.0000    0.0000    0.0000 C   0  0  0  0  0  4           0  0  0
    1.7762   -2.5176   -0.0390 C   0  0  0  0  0  4           0  0  0
    1.6299   -3.0144   -1.4727 C   0  0  0  0  0  4           0  0  0
    1.1287   -4.4537   -1.5981 C   0  0  0  0  0  4           0  0  0
    0.9960   -4.9123   -3.0425 C   0  0  0  0  0  4           0  0  0
  1 12  1  0     0  0
  2  6  2  0     0  0
  2  7  2  0     0  0
  2 11  1  0     0  0
  2 27  1  0     0  0
  3 27  1  0     0  0
  4 27  1  0     0  0
  5 27  1  0     0  0
  8 28  1  0     0  0
  8 29  1  0     0  0
  9 13  1  0     0  0
  9 14  1  0     0  0
  9 30  1  0     0  0
 10 12  1  0     0  0
 10 13  2  0     0  0
 11 15  1  0     0  0
 12 14  2  0     0  0
 13 31  1  0     0  0
 14 28  1  0     0  0
 15 16  1  0     0  0
 15 19  2  0     0  0
 16 17  1  0     0  0
 16 20  2  0     0  0
 17 21  2  0     0  0
 17 22  1  0     0  0
 18 23  2  0     0  0
 18 24  1  0     0  0
 18 30  1  0     0  0
 19 25  1  0     0  0
 20 26  1  0     0  0
 21 23  1  0     0  0
 22 24  2  0     0  0
 25 26  2  0     0  0
 31 32  1  0     0  0
 32 33  1  0     0  0
 33 34  1  0     0  0
M  END
> <standard_type>
pIC50

> <# Confs.>
25

> <canonical_smiles>
ClC(N=C1CCCC)=C(COC)N1CC2=CC=C(C3=CC=CC=C3NS(=O)(C(F)(F)F)=O)C=C2

> <standard_relation>
=

> <Publication_ID>
nan

> <predicted_activity_value>
7.0

> <actual_activity_value>
6.721246399047171

> <Compound>
8

> <standard_units>
nM

> hash
5153756069946378517

$$$$
8_
XXILIB    08252103443D 0   0.00000     0.00000

 34 36  0     1  0            999 V2000
    5.0035    1.4900    0.1073 Cl  0  0  0  0  0  1           0  0  0
   -3.6248    3.2512    4.6733 S   0  0  1  0  0  6           0  0  0
   -3.4815    5.0158    6.5723 F   0  0  0  0  0  1           0  0  0
   -5.4167    4.8874    5.5731 F   0  0  0  0  0  1           0  0  0
   -4.8125    3.3342    6.9805 F   0  0  0  0  0  1           0  0  0
   -3.1792    4.2034    3.6747 O   0  0  0  0  0  2           0  0  0
   -4.5498    2.1892    4.3263 O   0  0  0  0  0  2           0  0  0
    1.6717    2.9190   -1.3152 O   0  0  0  0  0  2           0  0  0
    1.4517    0.0000    0.0000 N   0  0  0  0  0  3           0  0  0
    3.5366   -0.7655    0.0328 N   0  0  0  0  0  3           0  0  0
   -2.2866    2.5588    5.4653 N   0  0  0  0  0  3           0  0  0
    3.5479    0.6046    0.0559 C   0  0  0  0  0  4           0  0  0
    2.2661   -1.1153    0.0000 C   0  0  0  0  0  4           0  0  0
    2.2641    1.1156    0.0350 C   0  0  0  0  0  4           0  0  0
   -2.3813    1.2782    6.1014 C   0  0  0  0  0  4           0  0  0
   -2.0995    0.0802    5.4050 C   0  0  0  0  0  4           0  0  0
   -1.5655    0.0477    4.0332 C   0  0  0  0  0  4           0  0  0
   -0.5417    0.0000    1.3969 C   0  0  0  0  0  4           0  0  0
   -2.8811    1.2517    7.4128 C   0  0  0  0  0  4           0  0  0
   -2.3294   -1.1307    6.0908 C   0  0  0  0  0  4           0  0  0
   -2.4289    0.0217    2.9279 C   0  0  0  0  0  4           0  0  0
   -0.1822    0.0490    3.8002 C   0  0  0  0  0  4           0  0  0
   -1.9230    0.0000    1.6250 C   0  0  0  0  0  4           0  0  0
    0.3240    0.0290    2.4974 C   0  0  0  0  0  4           0  0  0
   -3.0903    0.0387    8.0618 C   0  0  0  0  0  4           0  0  0
   -2.8153   -1.1526    7.4013 C   0  0  0  0  0  4           0  0  0
   -4.3601    4.1559    6.0027 C   0  0  1  0  0  4           0  0  0
    1.7749    2.5133    0.0435 C   0  0  0  0  0  4           0  0  0
    1.2067    4.2577   -1.4293 C   0  0  0  0  0  4           0  0  0
    0.0000    0.0000    0.0000 C   0  0  0  0  0  4           0  0  0
    1.7762   -2.5176   -0.0390 C   0  0  0  0  0  4           0  0  0
    2.9333   -3.5100   -0.0279 C   0  0  0  0  0  4           0  0  0
    2.5104   -4.9790   -0.0664 C   0  0  0  0  0  4           0  0  0
    3.6918   -5.9373   -0.0540 C   0  0  0  0  0  4           0  0  0
  1 12  1  0     0  0
  2  6  2  0     0  0
  2  7  2  0     0  0
  2 11  1  0     0  0
  2 27  1  0     0  0
  3 27  1  0     0  0
  4 27  1  0     0  0
  5 27  1  0     0  0
  8 28  1  0     0  0
  8 29  1  0     0  0
  9 13  1  0     0  0
  9 14  1  0     0  0
  9 30  1  0     0  0
 10 12  1  0     0  0
 10 13  2  0     0  0
 11 15  1  0     0  0
 12 14  2  0     0  0
 13 31  1  0     0  0
 14 28  1  0     0  0
 15 16  1  0     0  0
 15 19  2  0     0  0
 16 17  1  0     0  0
 16 20  2  0     0  0
 17 21  2  0     0  0
 17 22  1  0     0  0
 18 23  2  0     0  0
 18 24  1  0     0  0
 18 30  1  0     0  0
 19 25  1  0     0  0
 20 26  1  0     0  0
 21 23  1  0     0  0
 22 24  2  0     0  0
 25 26  2  0     0  0
 31 32  1  0     0  0
 32 33  1  0     0  0
 33 34  1  0     0  0
M  END
> <standard_type>
pIC50

> <# Confs.>
25

> <canonical_smiles>
ClC(N=C1CCCC)=C(COC)N1CC2=CC=C(C3=CC=CC=C3NS(=O)(C(F)(F)F)=O)C=C2

> <standard_relation>
=

> <Publication_ID>
nan

> <predicted_activity_value>
7.0

> <actual_activity_value>
6.721246399047171

> <Compound>
8

> <standard_units>
nM

> hash
5153756069946378517

$$$$
8_
XXILIB    08252103443D 0   0.00000     0.00000

 34 36  0     1  0            999 V2000
    5.0035    1.4900    0.1073 Cl  0  0  0  0  0  1           0  0  0
   -3.6248    3.2512    4.6733 S   0  0  1  0  0  6           0  0  0
   -3.4815    5.0158    6.5723 F   0  0  0  0  0  1           0  0  0
   -5.4167    4.8874    5.5731 F   0  0  0  0  0  1           0  0  0
   -4.8125    3.3342    6.9805 F   0  0  0  0  0  1           0  0  0
   -3.1792    4.2034    3.6747 O   0  0  0  0  0  2           0  0  0
   -4.5498    2.1892    4.3263 O   0  0  0  0  0  2           0  0  0
    1.6717    2.9190   -1.3152 O   0  0  0  0  0  2           0  0  0
    1.4517    0.0000    0.0000 N   0  0  0  0  0  3           0  0  0
    3.5366   -0.7655    0.0328 N   0  0  0  0  0  3           0  0  0
   -2.2866    2.5588    5.4653 N   0  0  0  0  0  3           0  0  0
    3.5479    0.6046    0.0559 C   0  0  0  0  0  4           0  0  0
    2.2661   -1.1153    0.0000 C   0  0  0  0  0  4           0  0  0
    2.2641    1.1156    0.0350 C   0  0  0  0  0  4           0  0  0
   -2.3813    1.2782    6.1014 C   0  0  0  0  0  4           0  0  0
   -2.0995    0.0802    5.4050 C   0  0  0  0  0  4           0  0  0
   -1.5655    0.0477    4.0332 C   0  0  0  0  0  4           0  0  0
   -0.5417    0.0000    1.3969 C   0  0  0  0  0  4           0  0  0
   -2.8811    1.2517    7.4128 C   0  0  0  0  0  4           0  0  0
   -2.3294   -1.1307    6.0908 C   0  0  0  0  0  4           0  0  0
   -2.4289    0.0217    2.9279 C   0  0  0  0  0  4           0  0  0
   -0.1822    0.0490    3.8002 C   0  0  0  0  0  4           0  0  0
   -1.9230    0.0000    1.6250 C   0  0  0  0  0  4           0  0  0
    0.3240    0.0290    2.4974 C   0  0  0  0  0  4           0  0  0
   -3.0903    0.0387    8.0618 C   0  0  0  0  0  4           0  0  0
   -2.8153   -1.1526    7.4013 C   0  0  0  0  0  4           0  0  0
   -4.3601    4.1559    6.0027 C   0  0  1  0  0  4           0  0  0
    1.7749    2.5133    0.0435 C   0  0  0  0  0  4           0  0  0
    1.2067    4.2577   -1.4293 C   0  0  0  0  0  4           0  0  0
    0.0000    0.0000    0.0000 C   0  0  0  0  0  4           0  0  0
    1.7762   -2.5176   -0.0390 C   0  0  0  0  0  4           0  0  0
    2.5149   -3.3916    0.9681 C   0  0  0  0  0  4           0  0  0
    2.3747   -2.9415    2.4228 C   0  0  0  0  0  4           0  0  0
    3.1251   -3.8378    3.3963 C   0  0  0  0  0  4           0  0  0
  1 12  1  0     0  0
  2  6  2  0     0  0
  2  7  2  0     0  0
  2 11  1  0     0  0
  2 27  1  0     0  0
  3 27  1  0     0  0
  4 27  1  0     0  0
  5 27  1  0     0  0
  8 28  1  0     0  0
  8 29  1  0     0  0
  9 13  1  0     0  0
  9 14  1  0     0  0
  9 30  1  0     0  0
 10 12  1  0     0  0
 10 13  2  0     0  0
 11 15  1  0     0  0
 12 14  2  0     0  0
 13 31  1  0     0  0
 14 28  1  0     0  0
 15 16  1  0     0  0
 15 19  2  0     0  0
 16 17  1  0     0  0
 16 20  2  0     0  0
 17 21  2  0     0  0
 17 22  1  0     0  0
 18 23  2  0     0  0
 18 24  1  0     0  0
 18 30  1  0     0  0
 19 25  1  0     0  0
 20 26  1  0     0  0
 21 23  1  0     0  0
 22 24  2  0     0  0
 25 26  2  0     0  0
 31 32  1  0     0  0
 32 33  1  0     0  0
 33 34  1  0     0  0
M  END
> <standard_type>
pIC50

> <# Confs.>
25

> <canonical_smiles>
ClC(N=C1CCCC)=C(COC)N1CC2=CC=C(C3=CC=CC=C3NS(=O)(C(F)(F)F)=O)C=C2

> <standard_relation>
=

> <Publication_ID>
nan

> <predicted_activity_value>
7.0

> <actual_activity_value>
6.721246399047171

> <Compound>
8

> <standard_units>
nM

> hash
5153756069946378517

$$$$
8_
XXILIB    08252103443D 0   0.00000     0.00000

 34 36  0     1  0            999 V2000
    5.0035   -1.4900   -0.1073 Cl  0  0  0  0  0  1           0  0  0
   -2.2243   -3.5116    5.3789 S   0  0  1  0  0  6           0  0  0
   -4.3380   -4.5563    6.4658 F   0  0  0  0  0  1           0  0  0
   -2.4563   -5.5373    6.9728 F   0  0  0  0  0  1           0  0  0
   -2.9565   -3.6119    7.8677 F   0  0  0  0  0  1           0  0  0
   -2.3400   -4.3539    4.2043 O   0  0  0  0  0  2           0  0  0
   -0.9247   -3.0861    5.8627 O   0  0  0  0  0  2           0  0  0
    1.6077   -2.8801   -1.4068 O   0  0  0  0  0  2           0  0  0
    1.4517   -0.0000   -0.0000 N   0  0  0  0  0  3           0  0  0
    3.5366    0.7655   -0.0328 N   0  0  0  0  0  3           0  0  0
   -3.2124   -2.1352    5.2162 N   0  0  0  0  0  3           0  0  0
    3.5479   -0.6046   -0.0559 C   0  0  0  0  0  4           0  0  0
    2.2661    1.1153    0.0000 C   0  0  0  0  0  4           0  0  0
    2.2641   -1.1156   -0.0350 C   0  0  0  0  0  4           0  0  0
   -2.9321   -0.9303    5.9394 C   0  0  0  0  0  4           0  0  0
   -2.0995    0.0802    5.4050 C   0  0  0  0  0  4           0  0  0
   -1.5655    0.0477    4.0332 C   0  0  0  0  0  4           0  0  0
   -0.5417   -0.0000    1.3969 C   0  0  0  0  0  4           0  0  0
   -3.4216   -0.8444    7.2521 C   0  0  0  0  0  4           0  0  0
   -1.7996    1.1748    6.2425 C   0  0  0  0  0  4           0  0  0
   -2.4289    0.0217    2.9279 C   0  0  0  0  0  4           0  0  0
   -0.1822    0.0490    3.8002 C   0  0  0  0  0  4           0  0  0
   -1.9230    0.0000    1.6250 C   0  0  0  0  0  4           0  0  0
    0.3240    0.0290    2.4974 C   0  0  0  0  0  4           0  0  0
   -3.1106    0.2532    8.0488 C   0  0  0  0  0  4           0  0  0
   -2.2993    1.2626    7.5449 C   0  0  0  0  0  4           0  0  0
   -3.0265   -4.3337    6.7232 C   0  0  1  0  0  4           0  0  0
    1.7749   -2.5133   -0.0435 C   0  0  0  0  0  4           0  0  0
    1.1370   -4.2153   -1.5372 C   0  0  0  0  0  4           0  0  0
    0.0000    0.0000   -0.0000 C   0  0  0  0  0  4           0  0  0
    1.7762    2.5176    0.0390 C   0  0  0  0  0  4           0  0  0
    1.5567    3.0679   -1.3655 C   0  0  0  0  0  4           0  0  0
    1.0511    4.5103   -1.4107 C   0  0  0  0  0  4           0  0  0
    0.8446    5.0228   -2.8281 C   0  0  0  0  0  4           0  0  0
  1 12  1  0     0  0
  2  6  2  0     0  0
  2  7  2  0     0  0
  2 11  1  0     0  0
  2 27  1  0     0  0
  3 27  1  0     0  0
  4 27  1  0     0  0
  5 27  1  0     0  0
  8 28  1  0     0  0
  8 29  1  0     0  0
  9 13  1  0     0  0
  9 14  1  0     0  0
  9 30  1  0     0  0
 10 12  1  0     0  0
 10 13  2  0     0  0
 11 15  1  0     0  0
 12 14  2  0     0  0
 13 31  1  0     0  0
 14 28  1  0     0  0
 15 16  1  0     0  0
 15 19  2  0     0  0
 16 17  1  0     0  0
 16 20  2  0     0  0
 17 21  2  0     0  0
 17 22  1  0     0  0
 18 23  2  0     0  0
 18 24  1  0     0  0
 18 30  1  0     0  0
 19 25  1  0     0  0
 20 26  1  0     0  0
 21 23  1  0     0  0
 22 24  2  0     0  0
 25 26  2  0     0  0
 31 32  1  0     0  0
 32 33  1  0     0  0
 33 34  1  0     0  0
M  END
> <standard_type>
pIC50

> <# Confs.>
25

> <canonical_smiles>
ClC(N=C1CCCC)=C(COC)N1CC2=CC=C(C3=CC=CC=C3NS(=O)(C(F)(F)F)=O)C=C2

> <standard_relation>
=

> <Publication_ID>
nan

> <predicted_activity_value>
7.0

> <actual_activity_value>
6.721246399047171

> <Compound>
8

> <standard_units>
nM

> hash
5153756069946378517

$$$$
8_
XXILIB    08252103443D 0   0.00000     0.00000

 34 36  0     1  0            999 V2000
    5.0035    1.4900    0.1073 Cl  0  0  0  0  0  1           0  0  0
   -3.6248    3.2512    4.6733 S   0  0  1  0  0  6           0  0  0
   -3.4815    5.0158    6.5723 F   0  0  0  0  0  1           0  0  0
   -5.4167    4.8874    5.5731 F   0  0  0  0  0  1           0  0  0
   -4.8125    3.3342    6.9805 F   0  0  0  0  0  1           0  0  0
   -3.1792    4.2034    3.6747 O   0  0  0  0  0  2           0  0  0
   -4.5498    2.1892    4.3263 O   0  0  0  0  0  2           0  0  0
    1.6077    2.8801    1.4068 O   0  0  0  0  0  2           0  0  0
    1.4517    0.0000    0.0000 N   0  0  0  0  0  3           0  0  0
    3.5366   -0.7655    0.0328 N   0  0  0  0  0  3           0  0  0
   -2.2866    2.5588    5.4653 N   0  0  0  0  0  3           0  0  0
    3.5479    0.6046    0.0559 C   0  0  0  0  0  4           0  0  0
    2.2661   -1.1153    0.0000 C   0  0  0  0  0  4           0  0  0
    2.2641    1.1156    0.0350 C   0  0  0  0  0  4           0  0  0
   -2.3813    1.2782    6.1014 C   0  0  0  0  0  4           0  0  0
   -2.0995    0.0802    5.4050 C   0  0  0  0  0  4           0  0  0
   -1.5655    0.0477    4.0332 C   0  0  0  0  0  4           0  0  0
   -0.5417    0.0000    1.3969 C   0  0  0  0  0  4           0  0  0
   -2.8811    1.2517    7.4128 C   0  0  0  0  0  4           0  0  0
   -2.3294   -1.1307    6.0908 C   0  0  0  0  0  4           0  0  0
   -2.4289    0.0217    2.9279 C   0  0  0  0  0  4           0  0  0
   -0.1822    0.0490    3.8002 C   0  0  0  0  0  4           0  0  0
   -1.9230    0.0000    1.6250 C   0  0  0  0  0  4           0  0  0
    0.3240    0.0290    2.4974 C   0  0  0  0  0  4           0  0  0
   -3.0903    0.0387    8.0618 C   0  0  0  0  0  4           0  0  0
   -2.8153   -1.1526    7.4013 C   0  0  0  0  0  4           0  0  0
   -4.3601    4.1559    6.0027 C   0  0  1  0  0  4           0  0  0
    1.7749    2.5133    0.0435 C   0  0  0  0  0  4           0  0  0
    1.1370    4.2153    1.5372 C   0  0  0  0  0  4           0  0  0
    0.0000    0.0000    0.0000 C   0  0  0  0  0  4           0  0  0
    1.7762   -2.5176   -0.0390 C   0  0  0  0  0  4           0  0  0
    1.6299   -3.0144   -1.4727 C   0  0  0  0  0  4           0  0  0
    2.9259   -3.0031   -2.2842 C   0  0  0  0  0  4           0  0  0
    2.7392   -3.5053   -3.7080 C   0  0  0  0  0  4           0  0  0
  1 12  1  0     0  0
  2  6  2  0     0  0
  2  7  2  0     0  0
  2 11  1  0     0  0
  2 27  1  0     0  0
  3 27  1  0     0  0
  4 27  1  0     0  0
  5 27  1  0     0  0
  8 28  1  0     0  0
  8 29  1  0     0  0
  9 13  1  0     0  0
  9 14  1  0     0  0
  9 30  1  0     0  0
 10 12  1  0     0  0
 10 13  2  0     0  0
 11 15  1  0     0  0
 12 14  2  0     0  0
 13 31  1  0     0  0
 14 28  1  0     0  0
 15 16  1  0     0  0
 15 19  2  0     0  0
 16 17  1  0     0  0
 16 20  2  0     0  0
 17 21  2  0     0  0
 17 22  1  0     0  0
 18 23  2  0     0  0
 18 24  1  0     0  0
 18 30  1  0     0  0
 19 25  1  0     0  0
 20 26  1  0     0  0
 21 23  1  0     0  0
 22 24  2  0     0  0
 25 26  2  0     0  0
 31 32  1  0     0  0
 32 33  1  0     0  0
 33 34  1  0     0  0
M  END
> <standard_type>
pIC50

> <# Confs.>
25

> <canonical_smiles>
ClC(N=C1CCCC)=C(COC)N1CC2=CC=C(C3=CC=CC=C3NS(=O)(C(F)(F)F)=O)C=C2

> <standard_relation>
=

> <Publication_ID>
nan

> <predicted_activity_value>
7.0

> <actual_activity_value>
6.721246399047171

> <Compound>
8

> <standard_units>
nM

> hash
5153756069946378517

$$$$
8_
XXILIB    08252103443D 0   0.00000     0.00000

 34 36  0     1  0            999 V2000
    5.0035   -1.4900   -0.1073 Cl  0  0  0  0  0  1           0  0  0
   -3.6248    3.2512    4.6733 S   0  0  1  0  0  6           0  0  0
   -3.4815    5.0158    6.5723 F   0  0  0  0  0  1           0  0  0
   -5.4167    4.8874    5.5731 F   0  0  0  0  0  1           0  0  0
   -4.8125    3.3342    6.9805 F   0  0  0  0  0  1           0  0  0
   -3.1792    4.2034    3.6747 O   0  0  0  0  0  2           0  0  0
   -4.5498    2.1892    4.3263 O   0  0  0  0  0  2           0  0  0
    0.7539   -2.5956    0.9424 O   0  0  0  0  0  2           0  0  0
    1.4517   -0.0000   -0.0000 N   0  0  0  0  0  3           0  0  0
    3.5366    0.7655   -0.0328 N   0  0  0  0  0  3           0  0  0
   -2.2866    2.5588    5.4653 N   0  0  0  0  0  3           0  0  0
    3.5479   -0.6046   -0.0559 C   0  0  0  0  0  4           0  0  0
    2.2661    1.1153    0.0000 C   0  0  0  0  0  4           0  0  0
    2.2641   -1.1156   -0.0350 C   0  0  0  0  0  4           0  0  0
   -2.3813    1.2782    6.1014 C   0  0  0  0  0  4           0  0  0
   -2.0995    0.0802    5.4050 C   0  0  0  0  0  4           0  0  0
   -1.5655    0.0477    4.0332 C   0  0  0  0  0  4           0  0  0
   -0.5417    0.0000    1.3969 C   0  0  0  0  0  4           0  0  0
   -2.8811    1.2517    7.4128 C   0  0  0  0  0  4           0  0  0
   -2.3294   -1.1307    6.0908 C   0  0  0  0  0  4           0  0  0
   -2.4289    0.0217    2.9279 C   0  0  0  0  0  4           0  0  0
   -0.1822    0.0490    3.8002 C   0  0  0  0  0  4           0  0  0
   -1.9230    0.0000    1.6250 C   0  0  0  0  0  4           0  0  0
    0.3240    0.0290    2.4974 C   0  0  0  0  0  4           0  0  0
   -3.0903    0.0387    8.0618 C   0  0  0  0  0  4           0  0  0
   -2.8153   -1.1526    7.4013 C   0  0  0  0  0  4           0  0  0
   -4.3601    4.1559    6.0027 C   0  0  1  0  0  4           0  0  0
    1.7749   -2.5133   -0.0435 C   0  0  0  0  0  4           0  0  0
    0.2065   -3.9052    1.0231 C   0  0  0  0  0  4           0  0  0
    0.0000    0.0000    0.0000 C   0  0  0  0  0  4           0  0  0
    1.7762    2.5176    0.0390 C   0  0  0  0  0  4           0  0  0
    1.5567    3.0679   -1.3655 C   0  0  0  0  0  4           0  0  0
    1.0511    4.5103   -1.4107 C   0  0  0  0  0  4           0  0  0
    0.8446    5.0228   -2.8281 C   0  0  0  0  0  4           0  0  0
  1 12  1  0     0  0
  2  6  2  0     0  0
  2  7  2  0     0  0
  2 11  1  0     0  0
  2 27  1  0     0  0
  3 27  1  0     0  0
  4 27  1  0     0  0
  5 27  1  0     0  0
  8 28  1  0     0  0
  8 29  1  0     0  0
  9 13  1  0     0  0
  9 14  1  0     0  0
  9 30  1  0     0  0
 10 12  1  0     0  0
 10 13  2  0     0  0
 11 15  1  0     0  0
 12 14  2  0     0  0
 13 31  1  0     0  0
 14 28  1  0     0  0
 15 16  1  0     0  0
 15 19  2  0     0  0
 16 17  1  0     0  0
 16 20  2  0     0  0
 17 21  2  0     0  0
 17 22  1  0     0  0
 18 23  2  0     0  0
 18 24  1  0     0  0
 18 30  1  0     0  0
 19 25  1  0     0  0
 20 26  1  0     0  0
 21 23  1  0     0  0
 22 24  2  0     0  0
 25 26  2  0     0  0
 31 32  1  0     0  0
 32 33  1  0     0  0
 33 34  1  0     0  0
M  END
> <standard_type>
pIC50

> <# Confs.>
25

> <canonical_smiles>
ClC(N=C1CCCC)=C(COC)N1CC2=CC=C(C3=CC=CC=C3NS(=O)(C(F)(F)F)=O)C=C2

> <standard_relation>
=

> <Publication_ID>
nan

> <predicted_activity_value>
7.0

> <actual_activity_value>
6.721246399047171

> <Compound>
8

> <standard_units>
nM

> hash
5153756069946378517

$$$$
8_
XXILIB    08252103443D 0   0.00000     0.00000

 34 36  0     1  0            999 V2000
    5.0035    1.4900    0.1073 Cl  0  0  0  0  0  1           0  0  0
   -1.1721    3.3778    5.7795 S   0  0  1  0  0  6           0  0  0
   -0.1644    3.9876    8.0933 F   0  0  0  0  0  1           0  0  0
   -1.5866    5.4357    7.2932 F   0  0  0  0  0  1           0  0  0
   -2.3019    3.5443    8.1112 F   0  0  0  0  0  1           0  0  0
   -0.0998    4.0481    5.0701 O   0  0  0  0  0  2           0  0  0
   -2.5112    3.3258    5.2245 O   0  0  0  0  0  2           0  0  0
    1.6717    2.9190   -1.3152 O   0  0  0  0  0  2           0  0  0
    1.4517    0.0000    0.0000 N   0  0  0  0  0  3           0  0  0
    3.5366   -0.7655    0.0328 N   0  0  0  0  0  3           0  0  0
   -0.7032    1.7957    6.1970 N   0  0  0  0  0  3           0  0  0
    3.5479    0.6046    0.0559 C   0  0  0  0  0  4           0  0  0
    2.2661   -1.1153    0.0000 C   0  0  0  0  0  4           0  0  0
    2.2641    1.1156    0.0350 C   0  0  0  0  0  4           0  0  0
   -1.6765    0.7702    6.4308 C   0  0  0  0  0  4           0  0  0
   -2.1473   -0.0590    5.3865 C   0  0  0  0  0  4           0  0  0
   -1.5949   -0.0346    4.0218 C   0  0  0  0  0  4           0  0  0
   -0.5417    0.0000    1.3969 C   0  0  0  0  0  4           0  0  0
   -2.2335    0.6992    7.7172 C   0  0  0  0  0  4           0  0  0
   -3.1841   -0.9620    5.7012 C   0  0  0  0  0  4           0  0  0
   -0.5238   -0.8680    3.6667 C   0  0  0  0  0  4           0  0  0
   -2.1311    0.8168    3.0445 C   0  0  0  0  0  4           0  0  0
   -0.0045   -0.8523    2.3690 C   0  0  0  0  0  4           0  0  0
   -1.6131    0.8316    1.7462 C   0  0  0  0  0  4           0  0  0
   -3.2515   -0.2082    7.9943 C   0  0  0  0  0  4           0  0  0
   -3.7275   -1.0384    6.9868 C   0  0  0  0  0  4           0  0  0
   -1.3109    4.1120    7.3822 C   0  0  1  0  0  4           0  0  0
    1.7749    2.5133    0.0435 C   0  0  0  0  0  4           0  0  0
    1.2067    4.2577   -1.4293 C   0  0  0  0  0  4           0  0  0
    0.0000    0.0000    0.0000 C   0  0  0  0  0  4           0  0  0
    1.7762   -2.5176   -0.0390 C   0  0  0  0  0  4           0  0  0
    2.5149   -3.3916    0.9681 C   0  0  0  0  0  4           0  0  0
    2.0669   -4.8535    0.9893 C   0  0  0  0  0  4           0  0  0
    2.8266   -5.6923    2.0060 C   0  0  0  0  0  4           0  0  0
  1 12  1  0     0  0
  2  6  2  0     0  0
  2  7  2  0     0  0
  2 11  1  0     0  0
  2 27  1  0     0  0
  3 27  1  0     0  0
  4 27  1  0     0  0
  5 27  1  0     0  0
  8 28  1  0     0  0
  8 29  1  0     0  0
  9 13  1  0     0  0
  9 14  1  0     0  0
  9 30  1  0     0  0
 10 12  1  0     0  0
 10 13  2  0     0  0
 11 15  1  0     0  0
 12 14  2  0     0  0
 13 31  1  0     0  0
 14 28  1  0     0  0
 15 16  1  0     0  0
 15 19  2  0     0  0
 16 17  1  0     0  0
 16 20  2  0     0  0
 17 21  2  0     0  0
 17 22  1  0     0  0
 18 23  2  0     0  0
 18 24  1  0     0  0
 18 30  1  0     0  0
 19 25  1  0     0  0
 20 26  1  0     0  0
 21 23  1  0     0  0
 22 24  2  0     0  0
 25 26  2  0     0  0
 31 32  1  0     0  0
 32 33  1  0     0  0
 33 34  1  0     0  0
M  END
> <standard_type>
pIC50

> <# Confs.>
25

> <canonical_smiles>
ClC(N=C1CCCC)=C(COC)N1CC2=CC=C(C3=CC=CC=C3NS(=O)(C(F)(F)F)=O)C=C2

> <standard_relation>
=

> <Publication_ID>
nan

> <predicted_activity_value>
7.0

> <actual_activity_value>
6.721246399047171

> <Compound>
8

> <standard_units>
nM

> hash
5153756069946378517

$$$$
8_
XXILIB    08252103443D 0   0.00000     0.00000

 34 36  0     1  0            999 V2000
    5.0035   -1.4900   -0.1073 Cl  0  0  0  0  0  1           0  0  0
   -0.5319   -3.0934    6.0278 S   0  0  1  0  0  6           0  0  0
   -1.9491   -4.7805    7.4011 F   0  0  0  0  0  1           0  0  0
    0.1543   -4.6622    7.9684 F   0  0  0  0  0  1           0  0  0
   -1.2172   -3.0624    8.5318 F   0  0  0  0  0  1           0  0  0
   -0.2007   -4.0929    5.0310 O   0  0  0  0  0  2           0  0  0
    0.4013   -2.0319    6.3539 O   0  0  0  0  0  2           0  0  0
    1.6077   -2.8801   -1.4068 O   0  0  0  0  0  2           0  0  0
    1.4517   -0.0000   -0.0000 N   0  0  0  0  0  3           0  0  0
    3.5366    0.7655   -0.0328 N   0  0  0  0  0  3           0  0  0
   -2.0421   -2.3905    5.6778 N   0  0  0  0  0  3           0  0  0
    3.5479   -0.6046   -0.0559 C   0  0  0  0  0  4           0  0  0
    2.2661    1.1153    0.0000 C   0  0  0  0  0  4           0  0  0
    2.2641   -1.1156   -0.0350 C   0  0  0  0  0  4           0  0  0
   -2.3817   -1.0835    6.1573 C   0  0  0  0  0  4           0  0  0
   -2.0995    0.0802    5.4050 C   0  0  0  0  0  4           0  0  0
   -1.5655    0.0477    4.0332 C   0  0  0  0  0  4           0  0  0
   -0.5417    0.0000    1.3969 C   0  0  0  0  0  4           0  0  0
   -2.8993   -0.9950    7.4590 C   0  0  0  0  0  4           0  0  0
   -2.3742    1.3218    6.0153 C   0  0  0  0  0  4           0  0  0
   -2.4289    0.0217    2.9279 C   0  0  0  0  0  4           0  0  0
   -0.1822    0.0490    3.8002 C   0  0  0  0  0  4           0  0  0
   -1.9230    0.0000    1.6250 C   0  0  0  0  0  4           0  0  0
    0.3240    0.0290    2.4974 C   0  0  0  0  0  4           0  0  0
   -3.1643    0.2469    8.0281 C   0  0  0  0  0  4           0  0  0
   -2.9014    1.4054    7.3071 C   0  0  0  0  0  4           0  0  0
   -0.9030   -3.9307    7.5404 C   0  0  1  0  0  4           0  0  0
    1.7749   -2.5133   -0.0435 C   0  0  0  0  0  4           0  0  0
    1.1370   -4.2153   -1.5372 C   0  0  0  0  0  4           0  0  0
    0.0000    0.0000   -0.0000 C   0  0  0  0  0  4           0  0  0
    1.7762    2.5176    0.0390 C   0  0  0  0  0  4           0  0  0
    2.9333    3.5100    0.0279 C   0  0  0  0  0  4           0  0  0
    2.5104    4.9790    0.0664 C   0  0  0  0  0  4           0  0  0
    3.6918    5.9373    0.0540 C   0  0  0  0  0  4           0  0  0
  1 12  1  0     0  0
  2  6  2  0     0  0
  2  7  2  0     0  0
  2 11  1  0     0  0
  2 27  1  0     0  0
  3 27  1  0     0  0
  4 27  1  0     0  0
  5 27  1  0     0  0
  8 28  1  0     0  0
  8 29  1  0     0  0
  9 13  1  0     0  0
  9 14  1  0     0  0
  9 30  1  0     0  0
 10 12  1  0     0  0
 10 13  2  0     0  0
 11 15  1  0     0  0
 12 14  2  0     0  0
 13 31  1  0     0  0
 14 28  1  0     0  0
 15 16  1  0     0  0
 15 19  2  0     0  0
 16 17  1  0     0  0
 16 20  2  0     0  0
 17 21  2  0     0  0
 17 22  1  0     0  0
 18 23  2  0     0  0
 18 24  1  0     0  0
 18 30  1  0     0  0
 19 25  1  0     0  0
 20 26  1  0     0  0
 21 23  1  0     0  0
 22 24  2  0     0  0
 25 26  2  0     0  0
 31 32  1  0     0  0
 32 33  1  0     0  0
 33 34  1  0     0  0
M  END
> <standard_type>
pIC50

> <# Confs.>
25

> <canonical_smiles>
ClC(N=C1CCCC)=C(COC)N1CC2=CC=C(C3=CC=CC=C3NS(=O)(C(F)(F)F)=O)C=C2

> <standard_relation>
=

> <Publication_ID>
nan

> <predicted_activity_value>
7.0

> <actual_activity_value>
6.721246399047171

> <Compound>
8

> <standard_units>
nM

> hash
5153756069946378517

$$$$
8_
XXILIB    08252103443D 0   0.00000     0.00000

 34 36  0     1  0            999 V2000
    5.0035   -1.4900   -0.1073 Cl  0  0  0  0  0  1           0  0  0
   -3.1343   -3.2963    4.7377 S   0  0  1  0  0  6           0  0  0
   -4.5466   -3.3312    6.9159 F   0  0  0  0  0  1           0  0  0
   -5.0204   -4.9050    5.4811 F   0  0  0  0  0  1           0  0  0
   -3.1960   -5.0287    6.6705 F   0  0  0  0  0  1           0  0  0
   -4.0742   -2.4153    4.0725 O   0  0  0  0  0  2           0  0  0
   -2.3813   -4.2826    3.9865 O   0  0  0  0  0  2           0  0  0
    1.6077   -2.8801   -1.4068 O   0  0  0  0  0  2           0  0  0
    1.4517   -0.0000   -0.0000 N   0  0  0  0  0  3           0  0  0
    3.5366    0.7655   -0.0328 N   0  0  0  0  0  3           0  0  0
   -2.0421   -2.3905    5.6778 N   0  0  0  0  0  3           0  0  0
    3.5479   -0.6046   -0.0559 C   0  0  0  0  0  4           0  0  0
    2.2661    1.1153    0.0000 C   0  0  0  0  0  4           0  0  0
    2.2641   -1.1156   -0.0350 C   0  0  0  0  0  4           0  0  0
   -2.3817   -1.0835    6.1573 C   0  0  0  0  0  4           0  0  0
   -2.0995    0.0802    5.4050 C   0  0  0  0  0  4           0  0  0
   -1.5655    0.0477    4.0332 C   0  0  0  0  0  4           0  0  0
   -0.5417    0.0000    1.3969 C   0  0  0  0  0  4           0  0  0
   -2.8993   -0.9950    7.4590 C   0  0  0  0  0  4           0  0  0
   -2.3742    1.3218    6.0153 C   0  0  0  0  0  4           0  0  0
   -2.4289    0.0217    2.9279 C   0  0  0  0  0  4           0  0  0
   -0.1822    0.0490    3.8002 C   0  0  0  0  0  4           0  0  0
   -1.9230    0.0000    1.6250 C   0  0  0  0  0  4           0  0  0
    0.3240    0.0290    2.4974 C   0  0  0  0  0  4           0  0  0
   -3.1643    0.2469    8.0281 C   0  0  0  0  0  4           0  0  0
   -2.9014    1.4054    7.3071 C   0  0  0  0  0  4           0  0  0
   -4.0061   -4.1728    6.0020 C   0  0  1  0  0  4           0  0  0
    1.7749   -2.5133   -0.0435 C   0  0  0  0  0  4           0  0  0
    1.1370   -4.2153   -1.5372 C   0  0  0  0  0  4           0  0  0
    0.0000    0.0000   -0.0000 C   0  0  0  0  0  4           0  0  0
    1.7762    2.5176    0.0390 C   0  0  0  0  0  4           0  0  0
    1.5567    3.0679   -1.3655 C   0  0  0  0  0  4           0  0  0
    1.0511    4.5103   -1.4107 C   0  0  0  0  0  4           0  0  0
    0.8446    5.0228   -2.8281 C   0  0  0  0  0  4           0  0  0
  1 12  1  0     0  0
  2  6  2  0     0  0
  2  7  2  0     0  0
  2 11  1  0     0  0
  2 27  1  0     0  0
  3 27  1  0     0  0
  4 27  1  0     0  0
  5 27  1  0     0  0
  8 28  1  0     0  0
  8 29  1  0     0  0
  9 13  1  0     0  0
  9 14  1  0     0  0
  9 30  1  0     0  0
 10 12  1  0     0  0
 10 13  2  0     0  0
 11 15  1  0     0  0
 12 14  2  0     0  0
 13 31  1  0     0  0
 14 28  1  0     0  0
 15 16  1  0     0  0
 15 19  2  0     0  0
 16 17  1  0     0  0
 16 20  2  0     0  0
 17 21  2  0     0  0
 17 22  1  0     0  0
 18 23  2  0     0  0
 18 24  1  0     0  0
 18 30  1  0     0  0
 19 25  1  0     0  0
 20 26  1  0     0  0
 21 23  1  0     0  0
 22 24  2  0     0  0
 25 26  2  0     0  0
 31 32  1  0     0  0
 32 33  1  0     0  0
 33 34  1  0     0  0
M  END
> <standard_type>
pIC50

> <# Confs.>
25

> <canonical_smiles>
ClC(N=C1CCCC)=C(COC)N1CC2=CC=C(C3=CC=CC=C3NS(=O)(C(F)(F)F)=O)C=C2

> <standard_relation>
=

> <Publication_ID>
nan

> <predicted_activity_value>
7.0

> <actual_activity_value>
6.721246399047171

> <Compound>
8

> <standard_units>
nM

> hash
5153756069946378517

$$$$
8_
XXILIB    08252103443D 0   0.00000     0.00000

 34 36  0     1  0            999 V2000
    5.0035    1.4900    0.1073 Cl  0  0  0  0  0  1           0  0  0
   -1.1721    3.3778    5.7795 S   0  0  1  0  0  6           0  0  0
   -0.1644    3.9876    8.0933 F   0  0  0  0  0  1           0  0  0
   -1.5866    5.4357    7.2932 F   0  0  0  0  0  1           0  0  0
   -2.3019    3.5443    8.1112 F   0  0  0  0  0  1           0  0  0
   -0.0998    4.0481    5.0701 O   0  0  0  0  0  2           0  0  0
   -2.5112    3.3258    5.2245 O   0  0  0  0  0  2           0  0  0
    1.6717    2.9190   -1.3152 O   0  0  0  0  0  2           0  0  0
    1.4517    0.0000    0.0000 N   0  0  0  0  0  3           0  0  0
    3.5366   -0.7655    0.0328 N   0  0  0  0  0  3           0  0  0
   -0.7032    1.7957    6.1970 N   0  0  0  0  0  3           0  0  0
    3.5479    0.6046    0.0559 C   0  0  0  0  0  4           0  0  0
    2.2661   -1.1153    0.0000 C   0  0  0  0  0  4           0  0  0
    2.2641    1.1156    0.0350 C   0  0  0  0  0  4           0  0  0
   -1.6765    0.7702    6.4308 C   0  0  0  0  0  4           0  0  0
   -2.1473   -0.0590    5.3865 C   0  0  0  0  0  4           0  0  0
   -1.5949   -0.0346    4.0218 C   0  0  0  0  0  4           0  0  0
   -0.5417    0.0000    1.3969 C   0  0  0  0  0  4           0  0  0
   -2.2335    0.6992    7.7172 C   0  0  0  0  0  4           0  0  0
   -3.1841   -0.9620    5.7012 C   0  0  0  0  0  4           0  0  0
   -0.5238   -0.8680    3.6667 C   0  0  0  0  0  4           0  0  0
   -2.1311    0.8168    3.0445 C   0  0  0  0  0  4           0  0  0
   -0.0045   -0.8523    2.3690 C   0  0  0  0  0  4           0  0  0
   -1.6131    0.8316    1.7462 C   0  0  0  0  0  4           0  0  0
   -3.2515   -0.2082    7.9943 C   0  0  0  0  0  4           0  0  0
   -3.7275   -1.0384    6.9868 C   0  0  0  0  0  4           0  0  0
   -1.3109    4.1120    7.3822 C   0  0  1  0  0  4           0  0  0
    1.7749    2.5133    0.0435 C   0  0  0  0  0  4           0  0  0
    1.2067    4.2577   -1.4293 C   0  0  0  0  0  4           0  0  0
    0.0000    0.0000    0.0000 C   0  0  0  0  0  4           0  0  0
    1.7762   -2.5176   -0.0390 C   0  0  0  0  0  4           0  0  0
    1.6299   -3.0144   -1.4727 C   0  0  0  0  0  4           0  0  0
    2.9259   -3.0031   -2.2842 C   0  0  0  0  0  4           0  0  0
    2.7392   -3.5053   -3.7080 C   0  0  0  0  0  4           0  0  0
  1 12  1  0     0  0
  2  6  2  0     0  0
  2  7  2  0     0  0
  2 11  1  0     0  0
  2 27  1  0     0  0
  3 27  1  0     0  0
  4 27  1  0     0  0
  5 27  1  0     0  0
  8 28  1  0     0  0
  8 29  1  0     0  0
  9 13  1  0     0  0
  9 14  1  0     0  0
  9 30  1  0     0  0
 10 12  1  0     0  0
 10 13  2  0     0  0
 11 15  1  0     0  0
 12 14  2  0     0  0
 13 31  1  0     0  0
 14 28  1  0     0  0
 15 16  1  0     0  0
 15 19  2  0     0  0
 16 17  1  0     0  0
 16 20  2  0     0  0
 17 21  2  0     0  0
 17 22  1  0     0  0
 18 23  2  0     0  0
 18 24  1  0     0  0
 18 30  1  0     0  0
 19 25  1  0     0  0
 20 26  1  0     0  0
 21 23  1  0     0  0
 22 24  2  0     0  0
 25 26  2  0     0  0
 31 32  1  0     0  0
 32 33  1  0     0  0
 33 34  1  0     0  0
M  END
> <standard_type>
pIC50

> <# Confs.>
25

> <canonical_smiles>
ClC(N=C1CCCC)=C(COC)N1CC2=CC=C(C3=CC=CC=C3NS(=O)(C(F)(F)F)=O)C=C2

> <standard_relation>
=

> <Publication_ID>
nan

> <predicted_activity_value>
7.0

> <actual_activity_value>
6.721246399047171

> <Compound>
8

> <standard_units>
nM

> hash
5153756069946378517

$$$$
8_
XXILIB    08252103443D 0   0.00000     0.00000

 34 36  0     1  0            999 V2000
    5.0035    1.4900    0.1073 Cl  0  0  0  0  0  1           0  0  0
   -0.5319   -3.0934    6.0278 S   0  0  1  0  0  6           0  0  0
   -1.9491   -4.7805    7.4011 F   0  0  0  0  0  1           0  0  0
    0.1543   -4.6622    7.9684 F   0  0  0  0  0  1           0  0  0
   -1.2172   -3.0624    8.5318 F   0  0  0  0  0  1           0  0  0
   -0.2007   -4.0929    5.0310 O   0  0  0  0  0  2           0  0  0
    0.4013   -2.0319    6.3539 O   0  0  0  0  0  2           0  0  0
    1.6717    2.9190   -1.3152 O   0  0  0  0  0  2           0  0  0
    1.4517    0.0000    0.0000 N   0  0  0  0  0  3           0  0  0
    3.5366   -0.7655    0.0328 N   0  0  0  0  0  3           0  0  0
   -2.0421   -2.3905    5.6778 N   0  0  0  0  0  3           0  0  0
    3.5479    0.6046    0.0559 C   0  0  0  0  0  4           0  0  0
    2.2661   -1.1153    0.0000 C   0  0  0  0  0  4           0  0  0
    2.2641    1.1156    0.0350 C   0  0  0  0  0  4           0  0  0
   -2.3817   -1.0835    6.1573 C   0  0  0  0  0  4           0  0  0
   -2.0995    0.0802    5.4050 C   0  0  0  0  0  4           0  0  0
   -1.5655    0.0477    4.0332 C   0  0  0  0  0  4           0  0  0
   -0.5417    0.0000    1.3969 C   0  0  0  0  0  4           0  0  0
   -2.8993   -0.9950    7.4590 C   0  0  0  0  0  4           0  0  0
   -2.3742    1.3218    6.0153 C   0  0  0  0  0  4           0  0  0
   -2.4289    0.0217    2.9279 C   0  0  0  0  0  4           0  0  0
   -0.1822    0.0490    3.8002 C   0  0  0  0  0  4           0  0  0
   -1.9230    0.0000    1.6250 C   0  0  0  0  0  4           0  0  0
    0.3240    0.0290    2.4974 C   0  0  0  0  0  4           0  0  0
   -3.1643    0.2469    8.0281 C   0  0  0  0  0  4           0  0  0
   -2.9014    1.4054    7.3071 C   0  0  0  0  0  4           0  0  0
   -0.9030   -3.9307    7.5404 C   0  0  1  0  0  4           0  0  0
    1.7749    2.5133    0.0435 C   0  0  0  0  0  4           0  0  0
    1.2067    4.2577   -1.4293 C   0  0  0  0  0  4           0  0  0
    0.0000    0.0000   -0.0000 C   0  0  0  0  0  4           0  0  0
    1.7762   -2.5176   -0.0390 C   0  0  0  0  0  4           0  0  0
    2.5149   -3.3916    0.9681 C   0  0  0  0  0  4           0  0  0
    2.3747   -2.9415    2.4228 C   0  0  0  0  0  4           0  0  0
    3.1251   -3.8378    3.3963 C   0  0  0  0  0  4           0  0  0
  1 12  1  0     0  0
  2  6  2  0     0  0
  2  7  2  0     0  0
  2 11  1  0     0  0
  2 27  1  0     0  0
  3 27  1  0     0  0
  4 27  1  0     0  0
  5 27  1  0     0  0
  8 28  1  0     0  0
  8 29  1  0     0  0
  9 13  1  0     0  0
  9 14  1  0     0  0
  9 30  1  0     0  0
 10 12  1  0     0  0
 10 13  2  0     0  0
 11 15  1  0     0  0
 12 14  2  0     0  0
 13 31  1  0     0  0
 14 28  1  0     0  0
 15 16  1  0     0  0
 15 19  2  0     0  0
 16 17  1  0     0  0
 16 20  2  0     0  0
 17 21  2  0     0  0
 17 22  1  0     0  0
 18 23  2  0     0  0
 18 24  1  0     0  0
 18 30  1  0     0  0
 19 25  1  0     0  0
 20 26  1  0     0  0
 21 23  1  0     0  0
 22 24  2  0     0  0
 25 26  2  0     0  0
 31 32  1  0     0  0
 32 33  1  0     0  0
 33 34  1  0     0  0
M  END
> <standard_type>
pIC50

> <# Confs.>
25

> <canonical_smiles>
ClC(N=C1CCCC)=C(COC)N1CC2=CC=C(C3=CC=CC=C3NS(=O)(C(F)(F)F)=O)C=C2

> <standard_relation>
=

> <Publication_ID>
nan

> <predicted_activity_value>
7.0

> <actual_activity_value>
6.721246399047171

> <Compound>
8

> <standard_units>
nM

> hash
5153756069946378517

$$$$
8_
XXILIB    08252103443D 0   0.00000     0.00000

 34 36  0     1  0            999 V2000
    5.0035    1.4900    0.1073 Cl  0  0  0  0  0  1           0  0  0
   -3.6248    3.2512    4.6733 S   0  0  1  0  0  6           0  0  0
   -3.4815    5.0158    6.5723 F   0  0  0  0  0  1           0  0  0
   -5.4167    4.8874    5.5731 F   0  0  0  0  0  1           0  0  0
   -4.8125    3.3342    6.9805 F   0  0  0  0  0  1           0  0  0
   -3.1792    4.2034    3.6747 O   0  0  0  0  0  2           0  0  0
   -4.5498    2.1892    4.3263 O   0  0  0  0  0  2           0  0  0
    1.6077    2.8801    1.4068 O   0  0  0  0  0  2           0  0  0
    1.4517    0.0000    0.0000 N   0  0  0  0  0  3           0  0  0
    3.5366   -0.7655    0.0328 N   0  0  0  0  0  3           0  0  0
   -2.2866    2.5588    5.4653 N   0  0  0  0  0  3           0  0  0
    3.5479    0.6046    0.0559 C   0  0  0  0  0  4           0  0  0
    2.2661   -1.1153    0.0000 C   0  0  0  0  0  4           0  0  0
    2.2641    1.1156    0.0350 C   0  0  0  0  0  4           0  0  0
   -2.3813    1.2782    6.1014 C   0  0  0  0  0  4           0  0  0
   -2.0995    0.0802    5.4050 C   0  0  0  0  0  4           0  0  0
   -1.5655    0.0477    4.0332 C   0  0  0  0  0  4           0  0  0
   -0.5417    0.0000    1.3969 C   0  0  0  0  0  4           0  0  0
   -2.8811    1.2517    7.4128 C   0  0  0  0  0  4           0  0  0
   -2.3294   -1.1307    6.0908 C   0  0  0  0  0  4           0  0  0
   -2.4289    0.0217    2.9279 C   0  0  0  0  0  4           0  0  0
   -0.1822    0.0490    3.8002 C   0  0  0  0  0  4           0  0  0
   -1.9230    0.0000    1.6250 C   0  0  0  0  0  4           0  0  0
    0.3240    0.0290    2.4974 C   0  0  0  0  0  4           0  0  0
   -3.0903    0.0387    8.0618 C   0  0  0  0  0  4           0  0  0
   -2.8153   -1.1526    7.4013 C   0  0  0  0  0  4           0  0  0
   -4.3601    4.1559    6.0027 C   0  0  1  0  0  4           0  0  0
    1.7749    2.5133    0.0435 C   0  0  0  0  0  4           0  0  0
    1.1370    4.2153    1.5372 C   0  0  0  0  0  4           0  0  0
    0.0000    0.0000    0.0000 C   0  0  0  0  0  4           0  0  0
    1.7762   -2.5176   -0.0390 C   0  0  0  0  0  4           0  0  0
    2.9333   -3.5100   -0.0279 C   0  0  0  0  0  4           0  0  0
    2.5104   -4.9790   -0.0664 C   0  0  0  0  0  4           0  0  0
    3.6918   -5.9373   -0.0540 C   0  0  0  0  0  4           0  0  0
  1 12  1  0     0  0
  2  6  2  0     0  0
  2  7  2  0     0  0
  2 11  1  0     0  0
  2 27  1  0     0  0
  3 27  1  0     0  0
  4 27  1  0     0  0
  5 27  1  0     0  0
  8 28  1  0     0  0
  8 29  1  0     0  0
  9 13  1  0     0  0
  9 14  1  0     0  0
  9 30  1  0     0  0
 10 12  1  0     0  0
 10 13  2  0     0  0
 11 15  1  0     0  0
 12 14  2  0     0  0
 13 31  1  0     0  0
 14 28  1  0     0  0
 15 16  1  0     0  0
 15 19  2  0     0  0
 16 17  1  0     0  0
 16 20  2  0     0  0
 17 21  2  0     0  0
 17 22  1  0     0  0
 18 23  2  0     0  0
 18 24  1  0     0  0
 18 30  1  0     0  0
 19 25  1  0     0  0
 20 26  1  0     0  0
 21 23  1  0     0  0
 22 24  2  0     0  0
 25 26  2  0     0  0
 31 32  1  0     0  0
 32 33  1  0     0  0
 33 34  1  0     0  0
M  END
> <standard_type>
pIC50

> <# Confs.>
25

> <canonical_smiles>
ClC(N=C1CCCC)=C(COC)N1CC2=CC=C(C3=CC=CC=C3NS(=O)(C(F)(F)F)=O)C=C2

> <standard_relation>
=

> <Publication_ID>
nan

> <predicted_activity_value>
7.0

> <actual_activity_value>
6.721246399047171

> <Compound>
8

> <standard_units>
nM

> hash
5153756069946378517

$$$$
8_
XXILIB    08252103443D 0   0.00000     0.00000

 34 36  0     1  0            999 V2000
    5.0035    1.4900    0.1073 Cl  0  0  0  0  0  1           0  0  0
   -3.6248    3.2512    4.6733 S   0  0  1  0  0  6           0  0  0
   -3.4815    5.0158    6.5723 F   0  0  0  0  0  1           0  0  0
   -5.4167    4.8874    5.5731 F   0  0  0  0  0  1           0  0  0
   -4.8125    3.3342    6.9805 F   0  0  0  0  0  1           0  0  0
   -3.1792    4.2034    3.6747 O   0  0  0  0  0  2           0  0  0
   -4.5498    2.1892    4.3263 O   0  0  0  0  0  2           0  0  0
    1.6077    2.8801    1.4068 O   0  0  0  0  0  2           0  0  0
    1.4517    0.0000    0.0000 N   0  0  0  0  0  3           0  0  0
    3.5366   -0.7655    0.0328 N   0  0  0  0  0  3           0  0  0
   -2.2866    2.5588    5.4653 N   0  0  0  0  0  3           0  0  0
    3.5479    0.6046    0.0559 C   0  0  0  0  0  4           0  0  0
    2.2661   -1.1153    0.0000 C   0  0  0  0  0  4           0  0  0
    2.2641    1.1156    0.0350 C   0  0  0  0  0  4           0  0  0
   -2.3813    1.2782    6.1014 C   0  0  0  0  0  4           0  0  0
   -2.0995    0.0802    5.4050 C   0  0  0  0  0  4           0  0  0
   -1.5655    0.0477    4.0332 C   0  0  0  0  0  4           0  0  0
   -0.5417    0.0000    1.3969 C   0  0  0  0  0  4           0  0  0
   -2.8811    1.2517    7.4128 C   0  0  0  0  0  4           0  0  0
   -2.3294   -1.1307    6.0908 C   0  0  0  0  0  4           0  0  0
   -2.4289    0.0217    2.9279 C   0  0  0  0  0  4           0  0  0
   -0.1822    0.0490    3.8002 C   0  0  0  0  0  4           0  0  0
   -1.9230    0.0000    1.6250 C   0  0  0  0  0  4           0  0  0
    0.3240    0.0290    2.4974 C   0  0  0  0  0  4           0  0  0
   -3.0903    0.0387    8.0618 C   0  0  0  0  0  4           0  0  0
   -2.8153   -1.1526    7.4013 C   0  0  0  0  0  4           0  0  0
   -4.3601    4.1559    6.0027 C   0  0  1  0  0  4           0  0  0
    1.7749    2.5133    0.0435 C   0  0  0  0  0  4           0  0  0
    1.1370    4.2153    1.5372 C   0  0  0  0  0  4           0  0  0
    0.0000    0.0000    0.0000 C   0  0  0  0  0  4           0  0  0
    1.7762   -2.5176   -0.0390 C   0  0  0  0  0  4           0  0  0
    2.5149   -3.3916    0.9681 C   0  0  0  0  0  4           0  0  0
    2.3747   -2.9415    2.4228 C   0  0  0  0  0  4           0  0  0
    3.1251   -3.8378    3.3963 C   0  0  0  0  0  4           0  0  0
  1 12  1  0     0  0
  2  6  2  0     0  0
  2  7  2  0     0  0
  2 11  1  0     0  0
  2 27  1  0     0  0
  3 27  1  0     0  0
  4 27  1  0     0  0
  5 27  1  0     0  0
  8 28  1  0     0  0
  8 29  1  0     0  0
  9 13  1  0     0  0
  9 14  1  0     0  0
  9 30  1  0     0  0
 10 12  1  0     0  0
 10 13  2  0     0  0
 11 15  1  0     0  0
 12 14  2  0     0  0
 13 31  1  0     0  0
 14 28  1  0     0  0
 15 16  1  0     0  0
 15 19  2  0     0  0
 16 17  1  0     0  0
 16 20  2  0     0  0
 17 21  2  0     0  0
 17 22  1  0     0  0
 18 23  2  0     0  0
 18 24  1  0     0  0
 18 30  1  0     0  0
 19 25  1  0     0  0
 20 26  1  0     0  0
 21 23  1  0     0  0
 22 24  2  0     0  0
 25 26  2  0     0  0
 31 32  1  0     0  0
 32 33  1  0     0  0
 33 34  1  0     0  0
M  END
> <standard_type>
pIC50

> <# Confs.>
25

> <canonical_smiles>
ClC(N=C1CCCC)=C(COC)N1CC2=CC=C(C3=CC=CC=C3NS(=O)(C(F)(F)F)=O)C=C2

> <standard_relation>
=

> <Publication_ID>
nan

> <predicted_activity_value>
7.0

> <actual_activity_value>
6.721246399047171

> <Compound>
8

> <standard_units>
nM

> hash
5153756069946378517

$$$$
8_
XXILIB    08252103443D 0   0.00000     0.00000

 34 36  0     1  0            999 V2000
    5.0035   -1.4900   -0.1073 Cl  0  0  0  0  0  1           0  0  0
   -1.1721    3.3778    5.7795 S   0  0  1  0  0  6           0  0  0
   -0.1644    3.9876    8.0933 F   0  0  0  0  0  1           0  0  0
   -1.5866    5.4357    7.2932 F   0  0  0  0  0  1           0  0  0
   -2.3019    3.5443    8.1112 F   0  0  0  0  0  1           0  0  0
   -0.0998    4.0481    5.0701 O   0  0  0  0  0  2           0  0  0
   -2.5112    3.3258    5.2245 O   0  0  0  0  0  2           0  0  0
    1.6077   -2.8801   -1.4068 O   0  0  0  0  0  2           0  0  0
    1.4517   -0.0000   -0.0000 N   0  0  0  0  0  3           0  0  0
    3.5366    0.7655   -0.0328 N   0  0  0  0  0  3           0  0  0
   -0.7032    1.7957    6.1970 N   0  0  0  0  0  3           0  0  0
    3.5479   -0.6046   -0.0559 C   0  0  0  0  0  4           0  0  0
    2.2661    1.1153    0.0000 C   0  0  0  0  0  4           0  0  0
    2.2641   -1.1156   -0.0350 C   0  0  0  0  0  4           0  0  0
   -1.6765    0.7702    6.4308 C   0  0  0  0  0  4           0  0  0
   -2.1473   -0.0590    5.3865 C   0  0  0  0  0  4           0  0  0
   -1.5949   -0.0346    4.0218 C   0  0  0  0  0  4           0  0  0
   -0.5417    0.0000    1.3969 C   0  0  0  0  0  4           0  0  0
   -2.2335    0.6992    7.7172 C   0  0  0  0  0  4           0  0  0
   -3.1841   -0.9620    5.7012 C   0  0  0  0  0  4           0  0  0
   -0.5238   -0.8680    3.6667 C   0  0  0  0  0  4           0  0  0
   -2.1311    0.8168    3.0445 C   0  0  0  0  0  4           0  0  0
   -0.0045   -0.8523    2.3690 C   0  0  0  0  0  4           0  0  0
   -1.6131    0.8316    1.7462 C   0  0  0  0  0  4           0  0  0
   -3.2515   -0.2082    7.9943 C   0  0  0  0  0  4           0  0  0
   -3.7275   -1.0384    6.9868 C   0  0  0  0  0  4           0  0  0
   -1.3109    4.1120    7.3822 C   0  0  1  0  0  4           0  0  0
    1.7749   -2.5133   -0.0435 C   0  0  0  0  0  4           0  0  0
    1.1370   -4.2153   -1.5372 C   0  0  0  0  0  4           0  0  0
    0.0000    0.0000    0.0000 C   0  0  0  0  0  4           0  0  0
    1.7762    2.5176    0.0390 C   0  0  0  0  0  4           0  0  0
    2.5667    3.3538    1.0389 C   0  0  0  0  0  4           0  0  0
    2.5011    2.8492    2.4809 C   0  0  0  0  0  4           0  0  0
    3.3016    3.7090    3.4476 C   0  0  0  0  0  4           0  0  0
  1 12  1  0     0  0
  2  6  2  0     0  0
  2  7  2  0     0  0
  2 11  1  0     0  0
  2 27  1  0     0  0
  3 27  1  0     0  0
  4 27  1  0     0  0
  5 27  1  0     0  0
  8 28  1  0     0  0
  8 29  1  0     0  0
  9 13  1  0     0  0
  9 14  1  0     0  0
  9 30  1  0     0  0
 10 12  1  0     0  0
 10 13  2  0     0  0
 11 15  1  0     0  0
 12 14  2  0     0  0
 13 31  1  0     0  0
 14 28  1  0     0  0
 15 16  1  0     0  0
 15 19  2  0     0  0
 16 17  1  0     0  0
 16 20  2  0     0  0
 17 21  2  0     0  0
 17 22  1  0     0  0
 18 23  2  0     0  0
 18 24  1  0     0  0
 18 30  1  0     0  0
 19 25  1  0     0  0
 20 26  1  0     0  0
 21 23  1  0     0  0
 22 24  2  0     0  0
 25 26  2  0     0  0
 31 32  1  0     0  0
 32 33  1  0     0  0
 33 34  1  0     0  0
M  END
> <standard_type>
pIC50

> <# Confs.>
25

> <canonical_smiles>
ClC(N=C1CCCC)=C(COC)N1CC2=CC=C(C3=CC=CC=C3NS(=O)(C(F)(F)F)=O)C=C2

> <standard_relation>
=

> <Publication_ID>
nan

> <predicted_activity_value>
7.0

> <actual_activity_value>
6.721246399047171

> <Compound>
8

> <standard_units>
nM

> hash
5153756069946378517

$$$$
8_
XXILIB    08252103443D 0   0.00000     0.00000

 34 36  0     1  0            999 V2000
    5.0035    1.4900    0.1073 Cl  0  0  0  0  0  1           0  0  0
   -0.5319   -3.0934    6.0278 S   0  0  1  0  0  6           0  0  0
   -1.9491   -4.7805    7.4011 F   0  0  0  0  0  1           0  0  0
    0.1543   -4.6622    7.9684 F   0  0  0  0  0  1           0  0  0
   -1.2172   -3.0624    8.5318 F   0  0  0  0  0  1           0  0  0
   -0.2007   -4.0929    5.0310 O   0  0  0  0  0  2           0  0  0
    0.4013   -2.0319    6.3539 O   0  0  0  0  0  2           0  0  0
    1.6717    2.9190   -1.3152 O   0  0  0  0  0  2           0  0  0
    1.4517    0.0000    0.0000 N   0  0  0  0  0  3           0  0  0
    3.5366   -0.7655    0.0328 N   0  0  0  0  0  3           0  0  0
   -2.0421   -2.3905    5.6778 N   0  0  0  0  0  3           0  0  0
    3.5479    0.6046    0.0559 C   0  0  0  0  0  4           0  0  0
    2.2661   -1.1153    0.0000 C   0  0  0  0  0  4           0  0  0
    2.2641    1.1156    0.0350 C   0  0  0  0  0  4           0  0  0
   -2.3817   -1.0835    6.1573 C   0  0  0  0  0  4           0  0  0
   -2.0995    0.0802    5.4050 C   0  0  0  0  0  4           0  0  0
   -1.5655    0.0477    4.0332 C   0  0  0  0  0  4           0  0  0
   -0.5417    0.0000    1.3969 C   0  0  0  0  0  4           0  0  0
   -2.8993   -0.9950    7.4590 C   0  0  0  0  0  4           0  0  0
   -2.3742    1.3218    6.0153 C   0  0  0  0  0  4           0  0  0
   -2.4289    0.0217    2.9279 C   0  0  0  0  0  4           0  0  0
   -0.1822    0.0490    3.8002 C   0  0  0  0  0  4           0  0  0
   -1.9230    0.0000    1.6250 C   0  0  0  0  0  4           0  0  0
    0.3240    0.0290    2.4974 C   0  0  0  0  0  4           0  0  0
   -3.1643    0.2469    8.0281 C   0  0  0  0  0  4           0  0  0
   -2.9014    1.4054    7.3071 C   0  0  0  0  0  4           0  0  0
   -0.9030   -3.9307    7.5404 C   0  0  1  0  0  4           0  0  0
    1.7749    2.5133    0.0435 C   0  0  0  0  0  4           0  0  0
    1.2067    4.2577   -1.4293 C   0  0  0  0  0  4           0  0  0
    0.0000    0.0000   -0.0000 C   0  0  0  0  0  4           0  0  0
    1.7762   -2.5176   -0.0390 C   0  0  0  0  0  4           0  0  0
    1.6299   -3.0144   -1.4727 C   0  0  0  0  0  4           0  0  0
    1.1287   -4.4537   -1.5981 C   0  0  0  0  0  4           0  0  0
    0.9960   -4.9123   -3.0425 C   0  0  0  0  0  4           0  0  0
  1 12  1  0     0  0
  2  6  2  0     0  0
  2  7  2  0     0  0
  2 11  1  0     0  0
  2 27  1  0     0  0
  3 27  1  0     0  0
  4 27  1  0     0  0
  5 27  1  0     0  0
  8 28  1  0     0  0
  8 29  1  0     0  0
  9 13  1  0     0  0
  9 14  1  0     0  0
  9 30  1  0     0  0
 10 12  1  0     0  0
 10 13  2  0     0  0
 11 15  1  0     0  0
 12 14  2  0     0  0
 13 31  1  0     0  0
 14 28  1  0     0  0
 15 16  1  0     0  0
 15 19  2  0     0  0
 16 17  1  0     0  0
 16 20  2  0     0  0
 17 21  2  0     0  0
 17 22  1  0     0  0
 18 23  2  0     0  0
 18 24  1  0     0  0
 18 30  1  0     0  0
 19 25  1  0     0  0
 20 26  1  0     0  0
 21 23  1  0     0  0
 22 24  2  0     0  0
 25 26  2  0     0  0
 31 32  1  0     0  0
 32 33  1  0     0  0
 33 34  1  0     0  0
M  END
> <standard_type>
pIC50

> <# Confs.>
25

> <canonical_smiles>
ClC(N=C1CCCC)=C(COC)N1CC2=CC=C(C3=CC=CC=C3NS(=O)(C(F)(F)F)=O)C=C2

> <standard_relation>
=

> <Publication_ID>
nan

> <predicted_activity_value>
7.0

> <actual_activity_value>
6.721246399047171

> <Compound>
8

> <standard_units>
nM

> hash
5153756069946378517

$$$$
8_
XXILIB    08252103443D 0   0.00000     0.00000

 34 36  0     1  0            999 V2000
    5.0035   -1.4900   -0.1073 Cl  0  0  0  0  0  1           0  0  0
   -0.5319   -3.0934    6.0278 S   0  0  1  0  0  6           0  0  0
   -1.9491   -4.7805    7.4011 F   0  0  0  0  0  1           0  0  0
    0.1543   -4.6622    7.9684 F   0  0  0  0  0  1           0  0  0
   -1.2172   -3.0624    8.5318 F   0  0  0  0  0  1           0  0  0
   -0.2007   -4.0929    5.0310 O   0  0  0  0  0  2           0  0  0
    0.4013   -2.0319    6.3539 O   0  0  0  0  0  2           0  0  0
    1.6077   -2.8801   -1.4068 O   0  0  0  0  0  2           0  0  0
    1.4517   -0.0000   -0.0000 N   0  0  0  0  0  3           0  0  0
    3.5366    0.7655   -0.0328 N   0  0  0  0  0  3           0  0  0
   -2.0421   -2.3905    5.6778 N   0  0  0  0  0  3           0  0  0
    3.5479   -0.6046   -0.0559 C   0  0  0  0  0  4           0  0  0
    2.2661    1.1153    0.0000 C   0  0  0  0  0  4           0  0  0
    2.2641   -1.1156   -0.0350 C   0  0  0  0  0  4           0  0  0
   -2.3817   -1.0835    6.1573 C   0  0  0  0  0  4           0  0  0
   -2.0995    0.0802    5.4050 C   0  0  0  0  0  4           0  0  0
   -1.5655    0.0477    4.0332 C   0  0  0  0  0  4           0  0  0
   -0.5417    0.0000    1.3969 C   0  0  0  0  0  4           0  0  0
   -2.8993   -0.9950    7.4590 C   0  0  0  0  0  4           0  0  0
   -2.3742    1.3218    6.0153 C   0  0  0  0  0  4           0  0  0
   -2.4289    0.0217    2.9279 C   0  0  0  0  0  4           0  0  0
   -0.1822    0.0490    3.8002 C   0  0  0  0  0  4           0  0  0
   -1.9230    0.0000    1.6250 C   0  0  0  0  0  4           0  0  0
    0.3240    0.0290    2.4974 C   0  0  0  0  0  4           0  0  0
   -3.1643    0.2469    8.0281 C   0  0  0  0  0  4           0  0  0
   -2.9014    1.4054    7.3071 C   0  0  0  0  0  4           0  0  0
   -0.9030   -3.9307    7.5404 C   0  0  1  0  0  4           0  0  0
    1.7749   -2.5133   -0.0435 C   0  0  0  0  0  4           0  0  0
    1.1370   -4.2153   -1.5372 C   0  0  0  0  0  4           0  0  0
    0.0000    0.0000   -0.0000 C   0  0  0  0  0  4           0  0  0
    1.7762    2.5176    0.0390 C   0  0  0  0  0  4           0  0  0
    2.5667    3.3538    1.0389 C   0  0  0  0  0  4           0  0  0
    2.5011    2.8492    2.4809 C   0  0  0  0  0  4           0  0  0
    3.3016    3.7090    3.4476 C   0  0  0  0  0  4           0  0  0
  1 12  1  0     0  0
  2  6  2  0     0  0
  2  7  2  0     0  0
  2 11  1  0     0  0
  2 27  1  0     0  0
  3 27  1  0     0  0
  4 27  1  0     0  0
  5 27  1  0     0  0
  8 28  1  0     0  0
  8 29  1  0     0  0
  9 13  1  0     0  0
  9 14  1  0     0  0
  9 30  1  0     0  0
 10 12  1  0     0  0
 10 13  2  0     0  0
 11 15  1  0     0  0
 12 14  2  0     0  0
 13 31  1  0     0  0
 14 28  1  0     0  0
 15 16  1  0     0  0
 15 19  2  0     0  0
 16 17  1  0     0  0
 16 20  2  0     0  0
 17 21  2  0     0  0
 17 22  1  0     0  0
 18 23  2  0     0  0
 18 24  1  0     0  0
 18 30  1  0     0  0
 19 25  1  0     0  0
 20 26  1  0     0  0
 21 23  1  0     0  0
 22 24  2  0     0  0
 25 26  2  0     0  0
 31 32  1  0     0  0
 32 33  1  0     0  0
 33 34  1  0     0  0
M  END
> <standard_type>
pIC50

> <# Confs.>
25

> <canonical_smiles>
ClC(N=C1CCCC)=C(COC)N1CC2=CC=C(C3=CC=CC=C3NS(=O)(C(F)(F)F)=O)C=C2

> <standard_relation>
=

> <Publication_ID>
nan

> <predicted_activity_value>
7.0

> <actual_activity_value>
6.721246399047171

> <Compound>
8

> <standard_units>
nM

> hash
5153756069946378517

$$$$
7_
XXILIB    08252103443D 0   0.00000     0.00000

 30 32  0     1  0            999 V2000
    5.0277   -1.4596    0.0265 Cl  0  0  0  0  0  1           0  0  0
    0.2391    4.7137    3.3960 O   0  0  0  0  0  2           0  0  0
   -0.6636    2.1343    5.6323 O   0  0  0  0  0  2           0  0  0
    1.1149    5.5379    5.3194 O   0  0  0  0  0  2           0  0  0
    1.5405   -2.8932   -1.3688 O   0  0  0  0  0  2           0  0  0
    1.4530    0.0000    0.0000 N   0  0  0  0  0  3           0  0  0
    3.5352    0.7623    0.0079 N   0  0  0  0  0  3           0  0  0
    3.5486   -0.6094    0.0071 C   0  0  0  0  0  4           0  0  0
    2.2669    1.1146   -0.0000 C   0  0  0  0  0  4           0  0  0
    2.2623   -1.1246   -0.0085 C   0  0  0  0  0  4           0  0  0
    1.9086    3.4492    4.5028 C   0  0  0  0  0  4           0  0  0
    1.4623    2.1229    4.6194 C   0  0  0  0  0  4           0  0  0
   -0.4984    0.8466    3.6806 C   0  0  0  0  0  4           0  0  0
   -0.5412    0.0000    1.3970 C   0  0  0  0  0  4           0  0  0
   -0.0007    0.8557    2.3708 C   0  0  0  0  0  4           0  0  0
    3.2807    3.7291    4.4902 C   0  0  0  0  0  4           0  0  0
    2.4022    1.0844    4.6749 C   0  0  0  0  0  4           0  0  0
   -1.5377   -0.0273    4.0198 C   0  0  0  0  0  4           0  0  0
   -1.5765   -0.8731    1.7550 C   0  0  0  0  0  4           0  0  0
   -2.0722   -0.8844    3.0581 C   0  0  0  0  0  4           0  0  0
    4.2065    2.6888    4.5630 C   0  0  0  0  0  4           0  0  0
    3.7683    1.3688    4.6469 C   0  0  0  0  0  4           0  0  0
    1.0064    4.6075    4.3417 C   0  0  0  0  0  4           0  0  0
    0.0401    1.7326    4.7165 C   0  0  0  0  0  4           0  0  0
    1.7079   -2.4956   -0.0149 C   0  0  0  0  0  4           0  0  0
    0.0000    0.0000    0.0000 C   0  0  0  0  0  4           0  0  0
    1.7822    2.5218   -0.0006 C   0  0  0  0  0  4           0  0  0
    2.5369    3.3949   -0.9983 C   0  0  0  0  0  4           0  0  0
    2.0472    4.8408   -1.0068 C   0  0  0  0  0  4           0  0  0
    2.7987    5.7133   -2.0012 C   0  0  0  0  0  4           0  0  0
  1  8  1  0     0  0
  2 23  2  0     0  0
  3 24  2  0     0  0
  4 23  1  0     0  0
  5 25  1  0     0  0
  6  9  1  0     0  0
  6 10  1  0     0  0
  6 26  1  0     0  0
  7  8  1  0     0  0
  7  9  2  0     0  0
  8 10  2  0     0  0
  9 27  1  0     0  0
 10 25  1  0     0  0
 11 12  1  0     0  0
 11 16  2  0     0  0
 11 23  1  0     0  0
 12 17  2  0     0  0
 12 24  1  0     0  0
 13 15  2  0     0  0
 13 18  1  0     0  0
 13 24  1  0     0  0
 14 15  1  0     0  0
 14 19  2  0     0  0
 14 26  1  0     0  0
 16 21  1  0     0  0
 17 22  1  0     0  0
 18 20  2  0     0  0
 19 20  1  0     0  0
 21 22  2  0     0  0
 27 28  1  0     0  0
 28 29  1  0     0  0
 29 30  1  0     0  0
M  END
> <standard_type>
pIC50

> <# Confs.>
25

> <canonical_smiles>
ClC(N=C1CCCC)=C(CO)N1CC2=CC=CC(C(C3=CC=CC=C3C(O)=O)=O)=C2

> <standard_relation>
=

> <Publication_ID>
nan

> <predicted_activity_value>
6.721246399047171

> <actual_activity_value>
6.795880017344075

> <Compound>
7

> <standard_units>
nM

> hash
16394989093989855569

$$$$
7_
XXILIB    08252103443D 0   0.00000     0.00000

 30 32  0     1  0            999 V2000
    5.0277   -1.4596    0.0265 Cl  0  0  0  0  0  1           0  0  0
    0.2391    4.7137    3.3960 O   0  0  0  0  0  2           0  0  0
   -0.6636    2.1343    5.6323 O   0  0  0  0  0  2           0  0  0
    1.1149    5.5379    5.3194 O   0  0  0  0  0  2           0  0  0
    1.5405   -2.8932   -1.3688 O   0  0  0  0  0  2           0  0  0
    1.4530    0.0000    0.0000 N   0  0  0  0  0  3           0  0  0
    3.5352    0.7623    0.0079 N   0  0  0  0  0  3           0  0  0
    3.5486   -0.6094    0.0071 C   0  0  0  0  0  4           0  0  0
    2.2669    1.1146   -0.0000 C   0  0  0  0  0  4           0  0  0
    2.2623   -1.1246   -0.0085 C   0  0  0  0  0  4           0  0  0
    1.9086    3.4492    4.5028 C   0  0  0  0  0  4           0  0  0
    1.4623    2.1229    4.6194 C   0  0  0  0  0  4           0  0  0
   -0.4984    0.8466    3.6806 C   0  0  0  0  0  4           0  0  0
   -0.5412    0.0000    1.3970 C   0  0  0  0  0  4           0  0  0
   -0.0007    0.8557    2.3708 C   0  0  0  0  0  4           0  0  0
    3.2807    3.7291    4.4902 C   0  0  0  0  0  4           0  0  0
    2.4022    1.0844    4.6749 C   0  0  0  0  0  4           0  0  0
   -1.5377   -0.0273    4.0198 C   0  0  0  0  0  4           0  0  0
   -1.5765   -0.8731    1.7550 C   0  0  0  0  0  4           0  0  0
   -2.0722   -0.8844    3.0581 C   0  0  0  0  0  4           0  0  0
    4.2065    2.6888    4.5630 C   0  0  0  0  0  4           0  0  0
    3.7683    1.3688    4.6469 C   0  0  0  0  0  4           0  0  0
    1.0064    4.6075    4.3417 C   0  0  0  0  0  4           0  0  0
    0.0401    1.7326    4.7165 C   0  0  0  0  0  4           0  0  0
    1.7079   -2.4956   -0.0149 C   0  0  0  0  0  4           0  0  0
    0.0000    0.0000    0.0000 C   0  0  0  0  0  4           0  0  0
    1.7822    2.5218   -0.0006 C   0  0  0  0  0  4           0  0  0
    2.5369    3.3949   -0.9983 C   0  0  0  0  0  4           0  0  0
    2.4056    2.8983   -2.4358 C   0  0  0  0  0  4           0  0  0
    3.1577    3.7679   -3.4323 C   0  0  0  0  0  4           0  0  0
  1  8  1  0     0  0
  2 23  2  0     0  0
  3 24  2  0     0  0
  4 23  1  0     0  0
  5 25  1  0     0  0
  6  9  1  0     0  0
  6 10  1  0     0  0
  6 26  1  0     0  0
  7  8  1  0     0  0
  7  9  2  0     0  0
  8 10  2  0     0  0
  9 27  1  0     0  0
 10 25  1  0     0  0
 11 12  1  0     0  0
 11 16  2  0     0  0
 11 23  1  0     0  0
 12 17  2  0     0  0
 12 24  1  0     0  0
 13 15  2  0     0  0
 13 18  1  0     0  0
 13 24  1  0     0  0
 14 15  1  0     0  0
 14 19  2  0     0  0
 14 26  1  0     0  0
 16 21  1  0     0  0
 17 22  1  0     0  0
 18 20  2  0     0  0
 19 20  1  0     0  0
 21 22  2  0     0  0
 27 28  1  0     0  0
 28 29  1  0     0  0
 29 30  1  0     0  0
M  END
> <standard_type>
pIC50

> <# Confs.>
25

> <canonical_smiles>
ClC(N=C1CCCC)=C(CO)N1CC2=CC=CC(C(C3=CC=CC=C3C(O)=O)=O)=C2

> <standard_relation>
=

> <Publication_ID>
nan

> <predicted_activity_value>
6.721246399047171

> <actual_activity_value>
6.795880017344075

> <Compound>
7

> <standard_units>
nM

> hash
16394989093989855569

$$$$
7_
XXILIB    08252103443D 0   0.00000     0.00000

 30 32  0     1  0            999 V2000
    5.0277    1.4596   -0.0265 Cl  0  0  0  0  0  1           0  0  0
   -3.2979   -4.8861    2.0870 O   0  0  0  0  0  2           0  0  0
   -2.4827   -2.5219    4.9174 O   0  0  0  0  0  2           0  0  0
   -3.2678   -5.6918    4.2074 O   0  0  0  0  0  2           0  0  0
    1.5405    2.8932    1.3688 O   0  0  0  0  0  2           0  0  0
    1.4530   -0.0000    0.0000 N   0  0  0  0  0  3           0  0  0
    3.5352   -0.7623   -0.0079 N   0  0  0  0  0  3           0  0  0
    3.5486    0.6094   -0.0071 C   0  0  0  0  0  4           0  0  0
    2.2669   -1.1146    0.0000 C   0  0  0  0  0  4           0  0  0
    2.2623    1.1246    0.0085 C   0  0  0  0  0  4           0  0  0
   -1.2491   -4.8462    3.2753 C   0  0  0  0  0  4           0  0  0
   -0.7495   -3.6319    3.7732 C   0  0  0  0  0  4           0  0  0
   -1.3167   -1.2101    3.3636 C   0  0  0  0  0  4           0  0  0
   -0.5412    0.0000    1.3970 C   0  0  0  0  0  4           0  0  0
   -0.7986   -1.2101    2.0617 C   0  0  0  0  0  4           0  0  0
   -0.3684   -5.8820    2.9392 C   0  0  0  0  0  4           0  0  0
    0.6304   -3.4874    3.9732 C   0  0  0  0  0  4           0  0  0
   -1.5845    0.0065    4.0017 C   0  0  0  0  0  4           0  0  0
   -0.8212    1.2086    2.0476 C   0  0  0  0  0  4           0  0  0
   -1.3378    1.2106    3.3425 C   0  0  0  0  0  4           0  0  0
    1.0039   -5.7204    3.1269 C   0  0  0  0  0  4           0  0  0
    1.5016   -4.5289    3.6504 C   0  0  0  0  0  4           0  0  0
   -2.6881   -5.1380    3.1163 C   0  0  0  0  0  4           0  0  0
   -1.5890   -2.4562    4.0854 C   0  0  0  0  0  4           0  0  0
    1.7079    2.4956    0.0149 C   0  0  0  0  0  4           0  0  0
    0.0000    0.0000    0.0000 C   0  0  0  0  0  4           0  0  0
    1.7822   -2.5218    0.0006 C   0  0  0  0  0  4           0  0  0
    2.5361   -3.3955   -0.9971 C   0  0  0  0  0  4           0  0  0
    2.0464   -4.8414   -1.0045 C   0  0  0  0  0  4           0  0  0
    2.7972   -5.7145   -1.9990 C   0  0  0  0  0  4           0  0  0
  1  8  1  0     0  0
  2 23  2  0     0  0
  3 24  2  0     0  0
  4 23  1  0     0  0
  5 25  1  0     0  0
  6  9  1  0     0  0
  6 10  1  0     0  0
  6 26  1  0     0  0
  7  8  1  0     0  0
  7  9  2  0     0  0
  8 10  2  0     0  0
  9 27  1  0     0  0
 10 25  1  0     0  0
 11 12  1  0     0  0
 11 16  2  0     0  0
 11 23  1  0     0  0
 12 17  2  0     0  0
 12 24  1  0     0  0
 13 15  2  0     0  0
 13 18  1  0     0  0
 13 24  1  0     0  0
 14 15  1  0     0  0
 14 19  2  0     0  0
 14 26  1  0     0  0
 16 21  1  0     0  0
 17 22  1  0     0  0
 18 20  2  0     0  0
 19 20  1  0     0  0
 21 22  2  0     0  0
 27 28  1  0     0  0
 28 29  1  0     0  0
 29 30  1  0     0  0
M  END
> <standard_type>
pIC50

> <# Confs.>
25

> <canonical_smiles>
ClC(N=C1CCCC)=C(CO)N1CC2=CC=CC(C(C3=CC=CC=C3C(O)=O)=O)=C2

> <standard_relation>
=

> <Publication_ID>
nan

> <predicted_activity_value>
6.721246399047171

> <actual_activity_value>
6.795880017344075

> <Compound>
7

> <standard_units>
nM

> hash
16394989093989855569

$$$$
7_
XXILIB    08252103443D 0   0.00000     0.00000

 30 32  0     1  0            999 V2000
    5.0277    1.4596   -0.0265 Cl  0  0  0  0  0  1           0  0  0
   -4.0156   -3.2481    1.5750 O   0  0  0  0  0  2           0  0  0
   -2.0412   -2.4422    5.2215 O   0  0  0  0  0  2           0  0  0
   -4.4757   -4.5653    3.3636 O   0  0  0  0  0  2           0  0  0
    1.5405    2.8932    1.3688 O   0  0  0  0  0  2           0  0  0
    1.4530   -0.0000    0.0000 N   0  0  0  0  0  3           0  0  0
    3.5352   -0.7623   -0.0079 N   0  0  0  0  0  3           0  0  0
    3.5486    0.6094   -0.0071 C   0  0  0  0  0  4           0  0  0
    2.2669   -1.1146    0.0000 C   0  0  0  0  0  4           0  0  0
    2.2623    1.1246    0.0085 C   0  0  0  0  0  4           0  0  0
   -2.2286   -4.4203    2.5965 C   0  0  0  0  0  4           0  0  0
   -1.3014   -3.7307    3.3945 C   0  0  0  0  0  4           0  0  0
   -1.3167   -1.2101    3.3636 C   0  0  0  0  0  4           0  0  0
   -0.5412   -0.0000    1.3970 C   0  0  0  0  0  4           0  0  0
   -0.7986   -1.2101    2.0617 C   0  0  0  0  0  4           0  0  0
   -1.8433   -5.5850    1.9209 C   0  0  0  0  0  4           0  0  0
   -0.0063   -4.2458    3.5435 C   0  0  0  0  0  4           0  0  0
   -1.5845    0.0065    4.0017 C   0  0  0  0  0  4           0  0  0
   -0.8212    1.2086    2.0476 C   0  0  0  0  0  4           0  0  0
   -1.3378    1.2106    3.3425 C   0  0  0  0  0  4           0  0  0
   -0.5470   -6.0787    2.0635 C   0  0  0  0  0  4           0  0  0
    0.3671   -5.4153    2.8794 C   0  0  0  0  0  4           0  0  0
   -3.6420   -4.0187    2.4474 C   0  0  0  0  0  4           0  0  0
   -1.5890   -2.4562    4.0854 C   0  0  0  0  0  4           0  0  0
    1.7079    2.4956    0.0149 C   0  0  0  0  0  4           0  0  0
    0.0000    0.0000    0.0000 C   0  0  0  0  0  4           0  0  0
    1.7822   -2.5218    0.0006 C   0  0  0  0  0  4           0  0  0
    2.5361   -3.3955   -0.9971 C   0  0  0  0  0  4           0  0  0
    2.0464   -4.8414   -1.0045 C   0  0  0  0  0  4           0  0  0
    2.7972   -5.7145   -1.9990 C   0  0  0  0  0  4           0  0  0
  1  8  1  0     0  0
  2 23  2  0     0  0
  3 24  2  0     0  0
  4 23  1  0     0  0
  5 25  1  0     0  0
  6  9  1  0     0  0
  6 10  1  0     0  0
  6 26  1  0     0  0
  7  8  1  0     0  0
  7  9  2  0     0  0
  8 10  2  0     0  0
  9 27  1  0     0  0
 10 25  1  0     0  0
 11 12  1  0     0  0
 11 16  2  0     0  0
 11 23  1  0     0  0
 12 17  2  0     0  0
 12 24  1  0     0  0
 13 15  2  0     0  0
 13 18  1  0     0  0
 13 24  1  0     0  0
 14 15  1  0     0  0
 14 19  2  0     0  0
 14 26  1  0     0  0
 16 21  1  0     0  0
 17 22  1  0     0  0
 18 20  2  0     0  0
 19 20  1  0     0  0
 21 22  2  0     0  0
 27 28  1  0     0  0
 28 29  1  0     0  0
 29 30  1  0     0  0
M  END
> <standard_type>
pIC50

> <# Confs.>
25

> <canonical_smiles>
ClC(N=C1CCCC)=C(CO)N1CC2=CC=CC(C(C3=CC=CC=C3C(O)=O)=O)=C2

> <standard_relation>
=

> <Publication_ID>
nan

> <predicted_activity_value>
6.721246399047171

> <actual_activity_value>
6.795880017344075

> <Compound>
7

> <standard_units>
nM

> hash
16394989093989855569

$$$$
7_
XXILIB    08252103443D 0   0.00000     0.00000

 30 32  0     1  0            999 V2000
    5.0277    1.4596   -0.0265 Cl  0  0  0  0  0  1           0  0  0
   -3.8187    3.1587    1.2963 O   0  0  0  0  0  2           0  0  0
   -2.0089    2.4422    5.2340 O   0  0  0  0  0  2           0  0  0
   -4.5779    4.1868    3.1705 O   0  0  0  0  0  2           0  0  0
    1.5405    2.8932    1.3688 O   0  0  0  0  0  2           0  0  0
    1.4530   -0.0000    0.0000 N   0  0  0  0  0  3           0  0  0
    3.5352   -0.7623   -0.0079 N   0  0  0  0  0  3           0  0  0
    3.5486    0.6094   -0.0071 C   0  0  0  0  0  4           0  0  0
    2.2669   -1.1146    0.0000 C   0  0  0  0  0  4           0  0  0
    2.2623    1.1246    0.0085 C   0  0  0  0  0  4           0  0  0
   -2.2782    4.3989    2.6000 C   0  0  0  0  0  4           0  0  0
   -1.3249    3.7307    3.3853 C   0  0  0  0  0  4           0  0  0
   -1.2928    1.2101    3.3729 C   0  0  0  0  0  4           0  0  0
   -0.5412   -0.0000    1.3970 C   0  0  0  0  0  4           0  0  0
   -0.7986    1.2101    2.0617 C   0  0  0  0  0  4           0  0  0
   -1.9710    5.6402    2.0290 C   0  0  0  0  0  4           0  0  0
   -0.0529    4.2961    3.5505 C   0  0  0  0  0  4           0  0  0
   -1.5247   -0.0065    4.0249 C   0  0  0  0  0  4           0  0  0
   -0.7724   -1.2086    2.0665 C   0  0  0  0  0  4           0  0  0
   -1.2630   -1.2106    3.3715 C   0  0  0  0  0  4           0  0  0
   -0.7077    6.2008    2.2142 C   0  0  0  0  0  4           0  0  0
    0.2520    5.5264    2.9664 C   0  0  0  0  0  4           0  0  0
   -3.6120    3.8491    2.2838 C   0  0  0  0  0  4           0  0  0
   -1.5778    2.4562    4.0898 C   0  0  0  0  0  4           0  0  0
    1.7079    2.4956    0.0149 C   0  0  0  0  0  4           0  0  0
    0.0000    0.0000    0.0000 C   0  0  0  0  0  4           0  0  0
    1.7822   -2.5218    0.0006 C   0  0  0  0  0  4           0  0  0
    2.5361   -3.3955   -0.9971 C   0  0  0  0  0  4           0  0  0
    2.0464   -4.8414   -1.0045 C   0  0  0  0  0  4           0  0  0
    2.7972   -5.7145   -1.9990 C   0  0  0  0  0  4           0  0  0
  1  8  1  0     0  0
  2 23  2  0     0  0
  3 24  2  0     0  0
  4 23  1  0     0  0
  5 25  1  0     0  0
  6  9  1  0     0  0
  6 10  1  0     0  0
  6 26  1  0     0  0
  7  8  1  0     0  0
  7  9  2  0     0  0
  8 10  2  0     0  0
  9 27  1  0     0  0
 10 25  1  0     0  0
 11 12  1  0     0  0
 11 16  2  0     0  0
 11 23  1  0     0  0
 12 17  2  0     0  0
 12 24  1  0     0  0
 13 15  2  0     0  0
 13 18  1  0     0  0
 13 24  1  0     0  0
 14 15  1  0     0  0
 14 19  2  0     0  0
 14 26  1  0     0  0
 16 21  1  0     0  0
 17 22  1  0     0  0
 18 20  2  0     0  0
 19 20  1  0     0  0
 21 22  2  0     0  0
 27 28  1  0     0  0
 28 29  1  0     0  0
 29 30  1  0     0  0
M  END
> <standard_type>
pIC50

> <# Confs.>
25

> <canonical_smiles>
ClC(N=C1CCCC)=C(CO)N1CC2=CC=CC(C(C3=CC=CC=C3C(O)=O)=O)=C2

> <standard_relation>
=

> <Publication_ID>
nan

> <predicted_activity_value>
6.721246399047171

> <actual_activity_value>
6.795880017344075

> <Compound>
7

> <standard_units>
nM

> hash
16394989093989855569

$$$$
7_
XXILIB    08252103443D 0   0.00000     0.00000

 30 32  0     1  0            999 V2000
    5.0277    1.4596   -0.0265 Cl  0  0  0  0  0  1           0  0  0
   -3.8187    3.1587    1.2963 O   0  0  0  0  0  2           0  0  0
   -2.0089    2.4422    5.2340 O   0  0  0  0  0  2           0  0  0
   -4.5779    4.1868    3.1705 O   0  0  0  0  0  2           0  0  0
    1.5405    2.8932    1.3688 O   0  0  0  0  0  2           0  0  0
    1.4530   -0.0000    0.0000 N   0  0  0  0  0  3           0  0  0
    3.5352   -0.7623   -0.0079 N   0  0  0  0  0  3           0  0  0
    3.5486    0.6094   -0.0071 C   0  0  0  0  0  4           0  0  0
    2.2669   -1.1146    0.0000 C   0  0  0  0  0  4           0  0  0
    2.2623    1.1246    0.0085 C   0  0  0  0  0  4           0  0  0
   -2.2782    4.3989    2.6000 C   0  0  0  0  0  4           0  0  0
   -1.3249    3.7307    3.3853 C   0  0  0  0  0  4           0  0  0
   -1.2928    1.2101    3.3729 C   0  0  0  0  0  4           0  0  0
   -0.5412   -0.0000    1.3970 C   0  0  0  0  0  4           0  0  0
   -0.7986    1.2101    2.0617 C   0  0  0  0  0  4           0  0  0
   -1.9710    5.6402    2.0290 C   0  0  0  0  0  4           0  0  0
   -0.0529    4.2961    3.5505 C   0  0  0  0  0  4           0  0  0
   -1.5247   -0.0065    4.0249 C   0  0  0  0  0  4           0  0  0
   -0.7724   -1.2086    2.0665 C   0  0  0  0  0  4           0  0  0
   -1.2630   -1.2106    3.3715 C   0  0  0  0  0  4           0  0  0
   -0.7077    6.2008    2.2142 C   0  0  0  0  0  4           0  0  0
    0.2520    5.5264    2.9664 C   0  0  0  0  0  4           0  0  0
   -3.6120    3.8491    2.2838 C   0  0  0  0  0  4           0  0  0
   -1.5778    2.4562    4.0898 C   0  0  0  0  0  4           0  0  0
    1.7079    2.4956    0.0149 C   0  0  0  0  0  4           0  0  0
    0.0000    0.0000    0.0000 C   0  0  0  0  0  4           0  0  0
    1.7822   -2.5218    0.0006 C   0  0  0  0  0  4           0  0  0
    2.5361   -3.3955   -0.9971 C   0  0  0  0  0  4           0  0  0
    2.4037   -2.8997   -2.4349 C   0  0  0  0  0  4           0  0  0
    3.1550   -3.7699   -3.4315 C   0  0  0  0  0  4           0  0  0
  1  8  1  0     0  0
  2 23  2  0     0  0
  3 24  2  0     0  0
  4 23  1  0     0  0
  5 25  1  0     0  0
  6  9  1  0     0  0
  6 10  1  0     0  0
  6 26  1  0     0  0
  7  8  1  0     0  0
  7  9  2  0     0  0
  8 10  2  0     0  0
  9 27  1  0     0  0
 10 25  1  0     0  0
 11 12  1  0     0  0
 11 16  2  0     0  0
 11 23  1  0     0  0
 12 17  2  0     0  0
 12 24  1  0     0  0
 13 15  2  0     0  0
 13 18  1  0     0  0
 13 24  1  0     0  0
 14 15  1  0     0  0
 14 19  2  0     0  0
 14 26  1  0     0  0
 16 21  1  0     0  0
 17 22  1  0     0  0
 18 20  2  0     0  0
 19 20  1  0     0  0
 21 22  2  0     0  0
 27 28  1  0     0  0
 28 29  1  0     0  0
 29 30  1  0     0  0
M  END
> <standard_type>
pIC50

> <# Confs.>
25

> <canonical_smiles>
ClC(N=C1CCCC)=C(CO)N1CC2=CC=CC(C(C3=CC=CC=C3C(O)=O)=O)=C2

> <standard_relation>
=

> <Publication_ID>
nan

> <predicted_activity_value>
6.721246399047171

> <actual_activity_value>
6.795880017344075

> <Compound>
7

> <standard_units>
nM

> hash
16394989093989855569

$$$$
7_
XXILIB    08252103443D 0   0.00000     0.00000

 30 32  0     1  0            999 V2000
    5.0277    1.4596   -0.0265 Cl  0  0  0  0  0  1           0  0  0
   -3.2979   -4.8861    2.0870 O   0  0  0  0  0  2           0  0  0
   -2.4827   -2.5219    4.9174 O   0  0  0  0  0  2           0  0  0
   -3.2678   -5.6918    4.2074 O   0  0  0  0  0  2           0  0  0
    1.5405    2.8932    1.3688 O   0  0  0  0  0  2           0  0  0
    1.4530   -0.0000    0.0000 N   0  0  0  0  0  3           0  0  0
    3.5352   -0.7623   -0.0079 N   0  0  0  0  0  3           0  0  0
    3.5486    0.6094   -0.0071 C   0  0  0  0  0  4           0  0  0
    2.2669   -1.1146    0.0000 C   0  0  0  0  0  4           0  0  0
    2.2623    1.1246    0.0085 C   0  0  0  0  0  4           0  0  0
   -1.2491   -4.8462    3.2753 C   0  0  0  0  0  4           0  0  0
   -0.7495   -3.6319    3.7732 C   0  0  0  0  0  4           0  0  0
   -1.3167   -1.2101    3.3636 C   0  0  0  0  0  4           0  0  0
   -0.5412    0.0000    1.3970 C   0  0  0  0  0  4           0  0  0
   -0.7986   -1.2101    2.0617 C   0  0  0  0  0  4           0  0  0
   -0.3684   -5.8820    2.9392 C   0  0  0  0  0  4           0  0  0
    0.6304   -3.4874    3.9732 C   0  0  0  0  0  4           0  0  0
   -1.5845    0.0065    4.0017 C   0  0  0  0  0  4           0  0  0
   -0.8212    1.2086    2.0476 C   0  0  0  0  0  4           0  0  0
   -1.3378    1.2106    3.3425 C   0  0  0  0  0  4           0  0  0
    1.0039   -5.7204    3.1269 C   0  0  0  0  0  4           0  0  0
    1.5016   -4.5289    3.6504 C   0  0  0  0  0  4           0  0  0
   -2.6881   -5.1380    3.1163 C   0  0  0  0  0  4           0  0  0
   -1.5890   -2.4562    4.0854 C   0  0  0  0  0  4           0  0  0
    1.7079    2.4956    0.0149 C   0  0  0  0  0  4           0  0  0
    0.0000    0.0000    0.0000 C   0  0  0  0  0  4           0  0  0
    1.7822   -2.5218    0.0006 C   0  0  0  0  0  4           0  0  0
    2.5361   -3.3955   -0.9971 C   0  0  0  0  0  4           0  0  0
    2.4037   -2.8997   -2.4349 C   0  0  0  0  0  4           0  0  0
    3.1550   -3.7699   -3.4315 C   0  0  0  0  0  4           0  0  0
  1  8  1  0     0  0
  2 23  2  0     0  0
  3 24  2  0     0  0
  4 23  1  0     0  0
  5 25  1  0     0  0
  6  9  1  0     0  0
  6 10  1  0     0  0
  6 26  1  0     0  0
  7  8  1  0     0  0
  7  9  2  0     0  0
  8 10  2  0     0  0
  9 27  1  0     0  0
 10 25  1  0     0  0
 11 12  1  0     0  0
 11 16  2  0     0  0
 11 23  1  0     0  0
 12 17  2  0     0  0
 12 24  1  0     0  0
 13 15  2  0     0  0
 13 18  1  0     0  0
 13 24  1  0     0  0
 14 15  1  0     0  0
 14 19  2  0     0  0
 14 26  1  0     0  0
 16 21  1  0     0  0
 17 22  1  0     0  0
 18 20  2  0     0  0
 19 20  1  0     0  0
 21 22  2  0     0  0
 27 28  1  0     0  0
 28 29  1  0     0  0
 29 30  1  0     0  0
M  END
> <standard_type>
pIC50

> <# Confs.>
25

> <canonical_smiles>
ClC(N=C1CCCC)=C(CO)N1CC2=CC=CC(C(C3=CC=CC=C3C(O)=O)=O)=C2

> <standard_relation>
=

> <Publication_ID>
nan

> <predicted_activity_value>
6.721246399047171

> <actual_activity_value>
6.795880017344075

> <Compound>
7

> <standard_units>
nM

> hash
16394989093989855569

$$$$
7_
XXILIB    08252103443D 0   0.00000     0.00000

 30 32  0     1  0            999 V2000
    5.0277   -1.4596    0.0265 Cl  0  0  0  0  0  1           0  0  0
    0.2391    4.7137    3.3960 O   0  0  0  0  0  2           0  0  0
   -0.6636    2.1343    5.6323 O   0  0  0  0  0  2           0  0  0
    1.1149    5.5379    5.3194 O   0  0  0  0  0  2           0  0  0
    1.5405   -2.8932   -1.3688 O   0  0  0  0  0  2           0  0  0
    1.4530    0.0000    0.0000 N   0  0  0  0  0  3           0  0  0
    3.5352    0.7623    0.0079 N   0  0  0  0  0  3           0  0  0
    3.5486   -0.6094    0.0071 C   0  0  0  0  0  4           0  0  0
    2.2669    1.1146    0.0000 C   0  0  0  0  0  4           0  0  0
    2.2623   -1.1246   -0.0085 C   0  0  0  0  0  4           0  0  0
    1.9086    3.4492    4.5028 C   0  0  0  0  0  4           0  0  0
    1.4623    2.1229    4.6194 C   0  0  0  0  0  4           0  0  0
   -0.4984    0.8466    3.6806 C   0  0  0  0  0  4           0  0  0
   -0.5412    0.0000    1.3970 C   0  0  0  0  0  4           0  0  0
   -0.0007    0.8557    2.3708 C   0  0  0  0  0  4           0  0  0
    3.2807    3.7291    4.4902 C   0  0  0  0  0  4           0  0  0
    2.4022    1.0844    4.6749 C   0  0  0  0  0  4           0  0  0
   -1.5377   -0.0273    4.0198 C   0  0  0  0  0  4           0  0  0
   -1.5765   -0.8731    1.7550 C   0  0  0  0  0  4           0  0  0
   -2.0722   -0.8844    3.0581 C   0  0  0  0  0  4           0  0  0
    4.2065    2.6888    4.5630 C   0  0  0  0  0  4           0  0  0
    3.7683    1.3688    4.6469 C   0  0  0  0  0  4           0  0  0
    1.0064    4.6075    4.3417 C   0  0  0  0  0  4           0  0  0
    0.0401    1.7326    4.7165 C   0  0  0  0  0  4           0  0  0
    1.7079   -2.4956   -0.0149 C   0  0  0  0  0  4           0  0  0
    0.0000    0.0000    0.0000 C   0  0  0  0  0  4           0  0  0
    1.7822    2.5218   -0.0006 C   0  0  0  0  0  4           0  0  0
    1.5938    3.0699   -1.4118 C   0  0  0  0  0  4           0  0  0
    1.0966    4.5132   -1.4236 C   0  0  0  0  0  4           0  0  0
   -0.2458    4.6814   -0.7275 C   0  0  0  0  0  4           0  0  0
  1  8  1  0     0  0
  2 23  2  0     0  0
  3 24  2  0     0  0
  4 23  1  0     0  0
  5 25  1  0     0  0
  6  9  1  0     0  0
  6 10  1  0     0  0
  6 26  1  0     0  0
  7  8  1  0     0  0
  7  9  2  0     0  0
  8 10  2  0     0  0
  9 27  1  0     0  0
 10 25  1  0     0  0
 11 12  1  0     0  0
 11 16  2  0     0  0
 11 23  1  0     0  0
 12 17  2  0     0  0
 12 24  1  0     0  0
 13 15  2  0     0  0
 13 18  1  0     0  0
 13 24  1  0     0  0
 14 15  1  0     0  0
 14 19  2  0     0  0
 14 26  1  0     0  0
 16 21  1  0     0  0
 17 22  1  0     0  0
 18 20  2  0     0  0
 19 20  1  0     0  0
 21 22  2  0     0  0
 27 28  1  0     0  0
 28 29  1  0     0  0
 29 30  1  0     0  0
M  END
> <standard_type>
pIC50

> <# Confs.>
25

> <canonical_smiles>
ClC(N=C1CCCC)=C(CO)N1CC2=CC=CC(C(C3=CC=CC=C3C(O)=O)=O)=C2

> <standard_relation>
=

> <Publication_ID>
nan

> <predicted_activity_value>
6.721246399047171

> <actual_activity_value>
6.795880017344075

> <Compound>
7

> <standard_units>
nM

> hash
16394989093989855569

$$$$
7_
XXILIB    08252103443D 0   0.00000     0.00000

 30 32  0     1  0            999 V2000
    5.0277    1.4596   -0.0265 Cl  0  0  0  0  0  1           0  0  0
   -4.0156   -3.2481    1.5750 O   0  0  0  0  0  2           0  0  0
   -2.0412   -2.4422    5.2215 O   0  0  0  0  0  2           0  0  0
   -4.4757   -4.5653    3.3636 O   0  0  0  0  0  2           0  0  0
    1.5405    2.8932    1.3688 O   0  0  0  0  0  2           0  0  0
    1.4530   -0.0000    0.0000 N   0  0  0  0  0  3           0  0  0
    3.5352   -0.7623   -0.0079 N   0  0  0  0  0  3           0  0  0
    3.5486    0.6094   -0.0071 C   0  0  0  0  0  4           0  0  0
    2.2669   -1.1146    0.0000 C   0  0  0  0  0  4           0  0  0
    2.2623    1.1246    0.0085 C   0  0  0  0  0  4           0  0  0
   -2.2286   -4.4203    2.5965 C   0  0  0  0  0  4           0  0  0
   -1.3014   -3.7307    3.3945 C   0  0  0  0  0  4           0  0  0
   -1.3167   -1.2101    3.3636 C   0  0  0  0  0  4           0  0  0
   -0.5412   -0.0000    1.3970 C   0  0  0  0  0  4           0  0  0
   -0.7986   -1.2101    2.0617 C   0  0  0  0  0  4           0  0  0
   -1.8433   -5.5850    1.9209 C   0  0  0  0  0  4           0  0  0
   -0.0063   -4.2458    3.5435 C   0  0  0  0  0  4           0  0  0
   -1.5845    0.0065    4.0017 C   0  0  0  0  0  4           0  0  0
   -0.8212    1.2086    2.0476 C   0  0  0  0  0  4           0  0  0
   -1.3378    1.2106    3.3425 C   0  0  0  0  0  4           0  0  0
   -0.5470   -6.0787    2.0635 C   0  0  0  0  0  4           0  0  0
    0.3671   -5.4153    2.8794 C   0  0  0  0  0  4           0  0  0
   -3.6420   -4.0187    2.4474 C   0  0  0  0  0  4           0  0  0
   -1.5890   -2.4562    4.0854 C   0  0  0  0  0  4           0  0  0
    1.7079    2.4956    0.0149 C   0  0  0  0  0  4           0  0  0
    0.0000    0.0000    0.0000 C   0  0  0  0  0  4           0  0  0
    1.7822   -2.5218    0.0006 C   0  0  0  0  0  4           0  0  0
    2.5361   -3.3955   -0.9971 C   0  0  0  0  0  4           0  0  0
    2.4037   -2.8997   -2.4349 C   0  0  0  0  0  4           0  0  0
    3.1550   -3.7699   -3.4315 C   0  0  0  0  0  4           0  0  0
  1  8  1  0     0  0
  2 23  2  0     0  0
  3 24  2  0     0  0
  4 23  1  0     0  0
  5 25  1  0     0  0
  6  9  1  0     0  0
  6 10  1  0     0  0
  6 26  1  0     0  0
  7  8  1  0     0  0
  7  9  2  0     0  0
  8 10  2  0     0  0
  9 27  1  0     0  0
 10 25  1  0     0  0
 11 12  1  0     0  0
 11 16  2  0     0  0
 11 23  1  0     0  0
 12 17  2  0     0  0
 12 24  1  0     0  0
 13 15  2  0     0  0
 13 18  1  0     0  0
 13 24  1  0     0  0
 14 15  1  0     0  0
 14 19  2  0     0  0
 14 26  1  0     0  0
 16 21  1  0     0  0
 17 22  1  0     0  0
 18 20  2  0     0  0
 19 20  1  0     0  0
 21 22  2  0     0  0
 27 28  1  0     0  0
 28 29  1  0     0  0
 29 30  1  0     0  0
M  END
> <standard_type>
pIC50

> <# Confs.>
25

> <canonical_smiles>
ClC(N=C1CCCC)=C(CO)N1CC2=CC=CC(C(C3=CC=CC=C3C(O)=O)=O)=C2

> <standard_relation>
=

> <Publication_ID>
nan

> <predicted_activity_value>
6.721246399047171

> <actual_activity_value>
6.795880017344075

> <Compound>
7

> <standard_units>
nM

> hash
16394989093989855569

$$$$
7_
XXILIB    08252103443D 0   0.00000     0.00000

 30 32  0     1  0            999 V2000
    5.0277   -1.4596    0.0265 Cl  0  0  0  0  0  1           0  0  0
    0.1630   -4.8001    3.7852 O   0  0  0  0  0  2           0  0  0
   -0.6727   -2.1642    5.6186 O   0  0  0  0  0  2           0  0  0
    1.3767   -5.4603    5.5845 O   0  0  0  0  0  2           0  0  0
    1.5405   -2.8932   -1.3688 O   0  0  0  0  0  2           0  0  0
    1.4530    0.0000    0.0000 N   0  0  0  0  0  3           0  0  0
    3.5352    0.7623    0.0079 N   0  0  0  0  0  3           0  0  0
    3.5486   -0.6094    0.0071 C   0  0  0  0  0  4           0  0  0
    2.2669    1.1146    0.0000 C   0  0  0  0  0  4           0  0  0
    2.2623   -1.1246   -0.0085 C   0  0  0  0  0  4           0  0  0
    1.9413   -3.4138    4.5111 C   0  0  0  0  0  4           0  0  0
    1.4639   -2.0986    4.6306 C   0  0  0  0  0  4           0  0  0
   -0.5153   -0.8647    3.6741 C   0  0  0  0  0  4           0  0  0
   -0.5412    0.0000    1.3970 C   0  0  0  0  0  4           0  0  0
   -0.0007   -0.8557    2.3708 C   0  0  0  0  0  4           0  0  0
    3.3138   -3.6514    4.3656 C   0  0  0  0  0  4           0  0  0
    2.3773   -1.0355    4.6499 C   0  0  0  0  0  4           0  0  0
   -1.5800   -0.0181    4.0034 C   0  0  0  0  0  4           0  0  0
   -1.6110    0.8361    1.7417 C   0  0  0  0  0  4           0  0  0
   -2.1250    0.8277    3.0376 C   0  0  0  0  0  4           0  0  0
    4.2116   -2.5844    4.3695 C   0  0  0  0  0  4           0  0  0
    3.7452   -1.2800    4.5195 C   0  0  0  0  0  4           0  0  0
    1.0769   -4.6096    4.5747 C   0  0  0  0  0  4           0  0  0
    0.0322   -1.7410    4.7134 C   0  0  0  0  0  4           0  0  0
    1.7079   -2.4956   -0.0149 C   0  0  0  0  0  4           0  0  0
    0.0000    0.0000    0.0000 C   0  0  0  0  0  4           0  0  0
    1.7822    2.5218   -0.0006 C   0  0  0  0  0  4           0  0  0
    1.5926    3.0707    1.4101 C   0  0  0  0  0  4           0  0  0
    1.0954    4.5140    1.4207 C   0  0  0  0  0  4           0  0  0
    0.9058    5.0633    2.8269 C   0  0  0  0  0  4           0  0  0
  1  8  1  0     0  0
  2 23  2  0     0  0
  3 24  2  0     0  0
  4 23  1  0     0  0
  5 25  1  0     0  0
  6  9  1  0     0  0
  6 10  1  0     0  0
  6 26  1  0     0  0
  7  8  1  0     0  0
  7  9  2  0     0  0
  8 10  2  0     0  0
  9 27  1  0     0  0
 10 25  1  0     0  0
 11 12  1  0     0  0
 11 16  2  0     0  0
 11 23  1  0     0  0
 12 17  2  0     0  0
 12 24  1  0     0  0
 13 15  2  0     0  0
 13 18  1  0     0  0
 13 24  1  0     0  0
 14 15  1  0     0  0
 14 19  2  0     0  0
 14 26  1  0     0  0
 16 21  1  0     0  0
 17 22  1  0     0  0
 18 20  2  0     0  0
 19 20  1  0     0  0
 21 22  2  0     0  0
 27 28  1  0     0  0
 28 29  1  0     0  0
 29 30  1  0     0  0
M  END
> <standard_type>
pIC50

> <# Confs.>
25

> <canonical_smiles>
ClC(N=C1CCCC)=C(CO)N1CC2=CC=CC(C(C3=CC=CC=C3C(O)=O)=O)=C2

> <standard_relation>
=

> <Publication_ID>
nan

> <predicted_activity_value>
6.721246399047171

> <actual_activity_value>
6.795880017344075

> <Compound>
7

> <standard_units>
nM

> hash
16394989093989855569

$$$$
7_
XXILIB    08252103443D 0   0.00000     0.00000

 30 32  0     1  0            999 V2000
    5.0277   -1.4596    0.0265 Cl  0  0  0  0  0  1           0  0  0
    0.1630   -4.8001    3.7852 O   0  0  0  0  0  2           0  0  0
   -0.6727   -2.1642    5.6186 O   0  0  0  0  0  2           0  0  0
    1.3767   -5.4603    5.5845 O   0  0  0  0  0  2           0  0  0
    1.5405   -2.8932   -1.3688 O   0  0  0  0  0  2           0  0  0
    1.4530    0.0000    0.0000 N   0  0  0  0  0  3           0  0  0
    3.5352    0.7623    0.0079 N   0  0  0  0  0  3           0  0  0
    3.5486   -0.6094    0.0071 C   0  0  0  0  0  4           0  0  0
    2.2669    1.1146    0.0000 C   0  0  0  0  0  4           0  0  0
    2.2623   -1.1246   -0.0085 C   0  0  0  0  0  4           0  0  0
    1.9413   -3.4138    4.5111 C   0  0  0  0  0  4           0  0  0
    1.4639   -2.0986    4.6306 C   0  0  0  0  0  4           0  0  0
   -0.5153   -0.8647    3.6741 C   0  0  0  0  0  4           0  0  0
   -0.5412    0.0000    1.3970 C   0  0  0  0  0  4           0  0  0
   -0.0007   -0.8557    2.3708 C   0  0  0  0  0  4           0  0  0
    3.3138   -3.6514    4.3656 C   0  0  0  0  0  4           0  0  0
    2.3773   -1.0355    4.6499 C   0  0  0  0  0  4           0  0  0
   -1.5800   -0.0181    4.0034 C   0  0  0  0  0  4           0  0  0
   -1.6110    0.8361    1.7417 C   0  0  0  0  0  4           0  0  0
   -2.1250    0.8277    3.0376 C   0  0  0  0  0  4           0  0  0
    4.2116   -2.5844    4.3695 C   0  0  0  0  0  4           0  0  0
    3.7452   -1.2800    4.5195 C   0  0  0  0  0  4           0  0  0
    1.0769   -4.6096    4.5747 C   0  0  0  0  0  4           0  0  0
    0.0322   -1.7410    4.7134 C   0  0  0  0  0  4           0  0  0
    1.7079   -2.4956   -0.0149 C   0  0  0  0  0  4           0  0  0
    0.0000    0.0000    0.0000 C   0  0  0  0  0  4           0  0  0
    1.7822    2.5218   -0.0006 C   0  0  0  0  0  4           0  0  0
    2.5361    3.3955    0.9971 C   0  0  0  0  0  4           0  0  0
    2.4037    2.8997    2.4349 C   0  0  0  0  0  4           0  0  0
    3.1550    3.7699    3.4315 C   0  0  0  0  0  4           0  0  0
  1  8  1  0     0  0
  2 23  2  0     0  0
  3 24  2  0     0  0
  4 23  1  0     0  0
  5 25  1  0     0  0
  6  9  1  0     0  0
  6 10  1  0     0  0
  6 26  1  0     0  0
  7  8  1  0     0  0
  7  9  2  0     0  0
  8 10  2  0     0  0
  9 27  1  0     0  0
 10 25  1  0     0  0
 11 12  1  0     0  0
 11 16  2  0     0  0
 11 23  1  0     0  0
 12 17  2  0     0  0
 12 24  1  0     0  0
 13 15  2  0     0  0
 13 18  1  0     0  0
 13 24  1  0     0  0
 14 15  1  0     0  0
 14 19  2  0     0  0
 14 26  1  0     0  0
 16 21  1  0     0  0
 17 22  1  0     0  0
 18 20  2  0     0  0
 19 20  1  0     0  0
 21 22  2  0     0  0
 27 28  1  0     0  0
 28 29  1  0     0  0
 29 30  1  0     0  0
M  END
> <standard_type>
pIC50

> <# Confs.>
25

> <canonical_smiles>
ClC(N=C1CCCC)=C(CO)N1CC2=CC=CC(C(C3=CC=CC=C3C(O)=O)=O)=C2

> <standard_relation>
=

> <Publication_ID>
nan

> <predicted_activity_value>
6.721246399047171

> <actual_activity_value>
6.795880017344075

> <Compound>
7

> <standard_units>
nM

> hash
16394989093989855569

$$$$
7_
XXILIB    08252103443D 0   0.00000     0.00000

 30 32  0     1  0            999 V2000
    5.0277   -1.4596    0.0265 Cl  0  0  0  0  0  1           0  0  0
   -3.1401    4.8058    1.7752 O   0  0  0  0  0  2           0  0  0
   -2.4575    2.5102    4.9374 O   0  0  0  0  0  2           0  0  0
   -3.4955    5.4780    3.9125 O   0  0  0  0  0  2           0  0  0
    2.4278   -3.2538   -0.9771 O   0  0  0  0  0  2           0  0  0
    1.4530    0.0000    0.0000 N   0  0  0  0  0  3           0  0  0
    3.5352    0.7623    0.0079 N   0  0  0  0  0  3           0  0  0
    3.5486   -0.6094    0.0071 C   0  0  0  0  0  4           0  0  0
    2.2669    1.1146   -0.0000 C   0  0  0  0  0  4           0  0  0
    2.2623   -1.1246   -0.0085 C   0  0  0  0  0  4           0  0  0
   -1.2960    4.8475    3.2614 C   0  0  0  0  0  4           0  0  0
   -0.7656    3.6451    3.7564 C   0  0  0  0  0  4           0  0  0
   -1.2928    1.2101    3.3729 C   0  0  0  0  0  4           0  0  0
   -0.5412    0.0000    1.3970 C   0  0  0  0  0  4           0  0  0
   -0.7986    1.2101    2.0617 C   0  0  0  0  0  4           0  0  0
   -0.4566    5.9470    3.0425 C   0  0  0  0  0  4           0  0  0
    0.6142    3.5447    3.9823 C   0  0  0  0  0  4           0  0  0
   -1.5247   -0.0065    4.0249 C   0  0  0  0  0  4           0  0  0
   -0.7724   -1.2086    2.0665 C   0  0  0  0  0  4           0  0  0
   -1.2630   -1.2106    3.3715 C   0  0  0  0  0  4           0  0  0
    0.9121    5.8403    3.2869 C   0  0  0  0  0  4           0  0  0
    1.4476    4.6395    3.7480 C   0  0  0  0  0  4           0  0  0
   -2.7162    5.0306    2.8997 C   0  0  0  0  0  4           0  0  0
   -1.5778    2.4562    4.0898 C   0  0  0  0  0  4           0  0  0
    1.7079   -2.4956   -0.0149 C   0  0  0  0  0  4           0  0  0
    0.0000    0.0000    0.0000 C   0  0  0  0  0  4           0  0  0
    1.7822    2.5218   -0.0006 C   0  0  0  0  0  4           0  0  0
    2.5369    3.3949   -0.9983 C   0  0  0  0  0  4           0  0  0
    2.0472    4.8408   -1.0068 C   0  0  0  0  0  4           0  0  0
    2.7987    5.7133   -2.0012 C   0  0  0  0  0  4           0  0  0
  1  8  1  0     0  0
  2 23  2  0     0  0
  3 24  2  0     0  0
  4 23  1  0     0  0
  5 25  1  0     0  0
  6  9  1  0     0  0
  6 10  1  0     0  0
  6 26  1  0     0  0
  7  8  1  0     0  0
  7  9  2  0     0  0
  8 10  2  0     0  0
  9 27  1  0     0  0
 10 25  1  0     0  0
 11 12  1  0     0  0
 11 16  2  0     0  0
 11 23  1  0     0  0
 12 17  2  0     0  0
 12 24  1  0     0  0
 13 15  2  0     0  0
 13 18  1  0     0  0
 13 24  1  0     0  0
 14 15  1  0     0  0
 14 19  2  0     0  0
 14 26  1  0     0  0
 16 21  1  0     0  0
 17 22  1  0     0  0
 18 20  2  0     0  0
 19 20  1  0     0  0
 21 22  2  0     0  0
 27 28  1  0     0  0
 28 29  1  0     0  0
 29 30  1  0     0  0
M  END
> <standard_type>
pIC50

> <# Confs.>
25

> <canonical_smiles>
ClC(N=C1CCCC)=C(CO)N1CC2=CC=CC(C(C3=CC=CC=C3C(O)=O)=O)=C2

> <standard_relation>
=

> <Publication_ID>
nan

> <predicted_activity_value>
6.721246399047171

> <actual_activity_value>
6.795880017344075

> <Compound>
7

> <standard_units>
nM

> hash
16394989093989855569

$$$$
7_
XXILIB    08252103443D 0   0.00000     0.00000

 30 32  0     1  0            999 V2000
    5.0277   -1.4596    0.0265 Cl  0  0  0  0  0  1           0  0  0
    0.1630   -4.8001    3.7852 O   0  0  0  0  0  2           0  0  0
   -0.6727   -2.1642    5.6186 O   0  0  0  0  0  2           0  0  0
    1.3767   -5.4603    5.5845 O   0  0  0  0  0  2           0  0  0
    1.5405   -2.8932   -1.3688 O   0  0  0  0  0  2           0  0  0
    1.4530    0.0000    0.0000 N   0  0  0  0  0  3           0  0  0
    3.5352    0.7623    0.0079 N   0  0  0  0  0  3           0  0  0
    3.5486   -0.6094    0.0071 C   0  0  0  0  0  4           0  0  0
    2.2669    1.1146    0.0000 C   0  0  0  0  0  4           0  0  0
    2.2623   -1.1246   -0.0085 C   0  0  0  0  0  4           0  0  0
    1.9413   -3.4138    4.5111 C   0  0  0  0  0  4           0  0  0
    1.4639   -2.0986    4.6306 C   0  0  0  0  0  4           0  0  0
   -0.5153   -0.8647    3.6741 C   0  0  0  0  0  4           0  0  0
   -0.5412    0.0000    1.3970 C   0  0  0  0  0  4           0  0  0
   -0.0007   -0.8557    2.3708 C   0  0  0  0  0  4           0  0  0
    3.3138   -3.6514    4.3656 C   0  0  0  0  0  4           0  0  0
    2.3773   -1.0355    4.6499 C   0  0  0  0  0  4           0  0  0
   -1.5800   -0.0181    4.0034 C   0  0  0  0  0  4           0  0  0
   -1.6110    0.8361    1.7417 C   0  0  0  0  0  4           0  0  0
   -2.1250    0.8277    3.0376 C   0  0  0  0  0  4           0  0  0
    4.2116   -2.5844    4.3695 C   0  0  0  0  0  4           0  0  0
    3.7452   -1.2800    4.5195 C   0  0  0  0  0  4           0  0  0
    1.0769   -4.6096    4.5747 C   0  0  0  0  0  4           0  0  0
    0.0322   -1.7410    4.7134 C   0  0  0  0  0  4           0  0  0
    1.7079   -2.4956   -0.0149 C   0  0  0  0  0  4           0  0  0
    0.0000    0.0000    0.0000 C   0  0  0  0  0  4           0  0  0
    1.7822    2.5218   -0.0006 C   0  0  0  0  0  4           0  0  0
    1.5938    3.0699   -1.4118 C   0  0  0  0  0  4           0  0  0
    1.0966    4.5132   -1.4236 C   0  0  0  0  0  4           0  0  0
    0.9081    5.0617   -2.8302 C   0  0  0  0  0  4           0  0  0
  1  8  1  0     0  0
  2 23  2  0     0  0
  3 24  2  0     0  0
  4 23  1  0     0  0
  5 25  1  0     0  0
  6  9  1  0     0  0
  6 10  1  0     0  0
  6 26  1  0     0  0
  7  8  1  0     0  0
  7  9  2  0     0  0
  8 10  2  0     0  0
  9 27  1  0     0  0
 10 25  1  0     0  0
 11 12  1  0     0  0
 11 16  2  0     0  0
 11 23  1  0     0  0
 12 17  2  0     0  0
 12 24  1  0     0  0
 13 15  2  0     0  0
 13 18  1  0     0  0
 13 24  1  0     0  0
 14 15  1  0     0  0
 14 19  2  0     0  0
 14 26  1  0     0  0
 16 21  1  0     0  0
 17 22  1  0     0  0
 18 20  2  0     0  0
 19 20  1  0     0  0
 21 22  2  0     0  0
 27 28  1  0     0  0
 28 29  1  0     0  0
 29 30  1  0     0  0
M  END
> <standard_type>
pIC50

> <# Confs.>
25

> <canonical_smiles>
ClC(N=C1CCCC)=C(CO)N1CC2=CC=CC(C(C3=CC=CC=C3C(O)=O)=O)=C2

> <standard_relation>
=

> <Publication_ID>
nan

> <predicted_activity_value>
6.721246399047171

> <actual_activity_value>
6.795880017344075

> <Compound>
7

> <standard_units>
nM

> hash
16394989093989855569

$$$$
7_
XXILIB    08252103443D 0   0.00000     0.00000

 30 32  0     1  0            999 V2000
    5.0277    1.4596   -0.0265 Cl  0  0  0  0  0  1           0  0  0
   -4.5675   -2.1559    5.3926 O   0  0  0  0  0  2           0  0  0
   -1.9027   -3.4763    3.4886 O   0  0  0  0  0  2           0  0  0
   -4.3906   -4.2106    6.3376 O   0  0  0  0  0  2           0  0  0
    1.5405    2.8932    1.3688 O   0  0  0  0  0  2           0  0  0
    1.4530   -0.0000    0.0000 N   0  0  0  0  0  3           0  0  0
    3.5352   -0.7623   -0.0079 N   0  0  0  0  0  3           0  0  0
    3.5486    0.6094   -0.0071 C   0  0  0  0  0  4           0  0  0
    2.2669   -1.1146    0.0000 C   0  0  0  0  0  4           0  0  0
    2.2623    1.1246    0.0085 C   0  0  0  0  0  4           0  0  0
   -2.5233   -2.7401    6.4371 C   0  0  0  0  0  4           0  0  0
   -1.4696   -2.4403    5.5585 C   0  0  0  0  0  4           0  0  0
   -1.3167   -1.2101    3.3636 C   0  0  0  0  0  4           0  0  0
   -0.5412    0.0000    1.3970 C   0  0  0  0  0  4           0  0  0
   -0.7986   -1.2101    2.0617 C   0  0  0  0  0  4           0  0  0
   -2.2973   -2.7706    7.8189 C   0  0  0  0  0  4           0  0  0
   -0.2073   -2.1272    6.0815 C   0  0  0  0  0  4           0  0  0
   -1.5845    0.0065    4.0017 C   0  0  0  0  0  4           0  0  0
   -0.8212    1.2086    2.0476 C   0  0  0  0  0  4           0  0  0
   -1.3378    1.2106    3.3425 C   0  0  0  0  0  4           0  0  0
   -1.0329   -2.4737    8.3266 C   0  0  0  0  0  4           0  0  0
    0.0077   -2.1447    7.4604 C   0  0  0  0  0  4           0  0  0
   -3.9113   -2.9905    5.9988 C   0  0  0  0  0  4           0  0  0
   -1.5890   -2.4562    4.0854 C   0  0  0  0  0  4           0  0  0
    1.7079    2.4956    0.0149 C   0  0  0  0  0  4           0  0  0
    0.0000    0.0000    0.0000 C   0  0  0  0  0  4           0  0  0
    1.7822   -2.5218    0.0006 C   0  0  0  0  0  4           0  0  0
    2.5361   -3.3955   -0.9971 C   0  0  0  0  0  4           0  0  0
    2.0464   -4.8414   -1.0045 C   0  0  0  0  0  4           0  0  0
    2.7972   -5.7145   -1.9990 C   0  0  0  0  0  4           0  0  0
  1  8  1  0     0  0
  2 23  2  0     0  0
  3 24  2  0     0  0
  4 23  1  0     0  0
  5 25  1  0     0  0
  6  9  1  0     0  0
  6 10  1  0     0  0
  6 26  1  0     0  0
  7  8  1  0     0  0
  7  9  2  0     0  0
  8 10  2  0     0  0
  9 27  1  0     0  0
 10 25  1  0     0  0
 11 12  1  0     0  0
 11 16  2  0     0  0
 11 23  1  0     0  0
 12 17  2  0     0  0
 12 24  1  0     0  0
 13 15  2  0     0  0
 13 18  1  0     0  0
 13 24  1  0     0  0
 14 15  1  0     0  0
 14 19  2  0     0  0
 14 26  1  0     0  0
 16 21  1  0     0  0
 17 22  1  0     0  0
 18 20  2  0     0  0
 19 20  1  0     0  0
 21 22  2  0     0  0
 27 28  1  0     0  0
 28 29  1  0     0  0
 29 30  1  0     0  0
M  END
> <standard_type>
pIC50

> <# Confs.>
25

> <canonical_smiles>
ClC(N=C1CCCC)=C(CO)N1CC2=CC=CC(C(C3=CC=CC=C3C(O)=O)=O)=C2

> <standard_relation>
=

> <Publication_ID>
nan

> <predicted_activity_value>
6.721246399047171

> <actual_activity_value>
6.795880017344075

> <Compound>
7

> <standard_units>
nM

> hash
16394989093989855569

$$$$
7_
XXILIB    08252103443D 0   0.00000     0.00000

 30 32  0     1  0            999 V2000
    5.0277    1.4596   -0.0265 Cl  0  0  0  0  0  1           0  0  0
   -4.5618    1.9286    2.8700 O   0  0  0  0  0  2           0  0  0
   -1.4778    2.5219    5.3067 O   0  0  0  0  0  2           0  0  0
   -5.3976    3.6431    4.0979 O   0  0  0  0  0  2           0  0  0
    1.5405    2.8932    1.3688 O   0  0  0  0  0  2           0  0  0
    1.4530   -0.0000    0.0000 N   0  0  0  0  0  3           0  0  0
    3.5352   -0.7623   -0.0079 N   0  0  0  0  0  3           0  0  0
    3.5486    0.6094   -0.0071 C   0  0  0  0  0  4           0  0  0
    2.2669   -1.1146    0.0000 C   0  0  0  0  0  4           0  0  0
    2.2623    1.1246    0.0085 C   0  0  0  0  0  4           0  0  0
   -3.3204    3.9431    2.9779 C   0  0  0  0  0  4           0  0  0
   -1.9879    3.6319    3.2935 C   0  0  0  0  0  4           0  0  0
   -1.2928    1.2101    3.3729 C   0  0  0  0  0  4           0  0  0
   -0.5412    0.0000    1.3970 C   0  0  0  0  0  4           0  0  0
   -0.7986    1.2101    2.0617 C   0  0  0  0  0  4           0  0  0
   -3.6194    5.1194    2.2790 C   0  0  0  0  0  4           0  0  0
   -0.9626    4.4845    2.8613 C   0  0  0  0  0  4           0  0  0
   -1.5247   -0.0065    4.0249 C   0  0  0  0  0  4           0  0  0
   -0.7724   -1.2086    2.0665 C   0  0  0  0  0  4           0  0  0
   -1.2630   -1.2106    3.3715 C   0  0  0  0  0  4           0  0  0
   -2.5920    5.9684    1.8689 C   0  0  0  0  0  4           0  0  0
   -1.2660    5.6476    2.1522 C   0  0  0  0  0  4           0  0  0
   -4.4660    3.0687    3.3007 C   0  0  0  0  0  4           0  0  0
   -1.5778    2.4562    4.0898 C   0  0  0  0  0  4           0  0  0
    1.7079    2.4956    0.0149 C   0  0  0  0  0  4           0  0  0
   -0.0000    0.0000    0.0000 C   0  0  0  0  0  4           0  0  0
    1.7822   -2.5218    0.0006 C   0  0  0  0  0  4           0  0  0
    2.5361   -3.3955   -0.9971 C   0  0  0  0  0  4           0  0  0
    2.0464   -4.8414   -1.0045 C   0  0  0  0  0  4           0  0  0
    2.7972   -5.7145   -1.9990 C   0  0  0  0  0  4           0  0  0
  1  8  1  0     0  0
  2 23  2  0     0  0
  3 24  2  0     0  0
  4 23  1  0     0  0
  5 25  1  0     0  0
  6  9  1  0     0  0
  6 10  1  0     0  0
  6 26  1  0     0  0
  7  8  1  0     0  0
  7  9  2  0     0  0
  8 10  2  0     0  0
  9 27  1  0     0  0
 10 25  1  0     0  0
 11 12  1  0     0  0
 11 16  2  0     0  0
 11 23  1  0     0  0
 12 17  2  0     0  0
 12 24  1  0     0  0
 13 15  2  0     0  0
 13 18  1  0     0  0
 13 24  1  0     0  0
 14 15  1  0     0  0
 14 19  2  0     0  0
 14 26  1  0     0  0
 16 21  1  0     0  0
 17 22  1  0     0  0
 18 20  2  0     0  0
 19 20  1  0     0  0
 21 22  2  0     0  0
 27 28  1  0     0  0
 28 29  1  0     0  0
 29 30  1  0     0  0
M  END
> <standard_type>
pIC50

> <# Confs.>
25

> <canonical_smiles>
ClC(N=C1CCCC)=C(CO)N1CC2=CC=CC(C(C3=CC=CC=C3C(O)=O)=O)=C2

> <standard_relation>
=

> <Publication_ID>
nan

> <predicted_activity_value>
6.721246399047171

> <actual_activity_value>
6.795880017344075

> <Compound>
7

> <standard_units>
nM

> hash
16394989093989855569

$$$$
7_
XXILIB    08252103443D 0   0.00000     0.00000

 30 32  0     1  0            999 V2000
    5.0277    1.4596   -0.0265 Cl  0  0  0  0  0  1           0  0  0
    0.1630   -4.8001    3.7852 O   0  0  0  0  0  2           0  0  0
   -0.6727   -2.1642    5.6186 O   0  0  0  0  0  2           0  0  0
    1.3767   -5.4603    5.5845 O   0  0  0  0  0  2           0  0  0
    1.5405    2.8932    1.3688 O   0  0  0  0  0  2           0  0  0
    1.4530   -0.0000    0.0000 N   0  0  0  0  0  3           0  0  0
    3.5352   -0.7623   -0.0079 N   0  0  0  0  0  3           0  0  0
    3.5486    0.6094   -0.0071 C   0  0  0  0  0  4           0  0  0
    2.2669   -1.1146    0.0000 C   0  0  0  0  0  4           0  0  0
    2.2623    1.1246    0.0085 C   0  0  0  0  0  4           0  0  0
    1.9413   -3.4138    4.5111 C   0  0  0  0  0  4           0  0  0
    1.4639   -2.0986    4.6306 C   0  0  0  0  0  4           0  0  0
   -0.5153   -0.8647    3.6741 C   0  0  0  0  0  4           0  0  0
   -0.5412    0.0000    1.3970 C   0  0  0  0  0  4           0  0  0
   -0.0007   -0.8557    2.3708 C   0  0  0  0  0  4           0  0  0
    3.3138   -3.6514    4.3656 C   0  0  0  0  0  4           0  0  0
    2.3773   -1.0355    4.6499 C   0  0  0  0  0  4           0  0  0
   -1.5800   -0.0181    4.0034 C   0  0  0  0  0  4           0  0  0
   -1.6110    0.8361    1.7417 C   0  0  0  0  0  4           0  0  0
   -2.1250    0.8277    3.0376 C   0  0  0  0  0  4           0  0  0
    4.2116   -2.5844    4.3695 C   0  0  0  0  0  4           0  0  0
    3.7452   -1.2800    4.5195 C   0  0  0  0  0  4           0  0  0
    1.0769   -4.6096    4.5747 C   0  0  0  0  0  4           0  0  0
    0.0322   -1.7410    4.7134 C   0  0  0  0  0  4           0  0  0
    1.7079    2.4956    0.0149 C   0  0  0  0  0  4           0  0  0
    0.0000    0.0000    0.0000 C   0  0  0  0  0  4           0  0  0
    1.7822   -2.5218    0.0006 C   0  0  0  0  0  4           0  0  0
    2.5361   -3.3955   -0.9971 C   0  0  0  0  0  4           0  0  0
    2.0464   -4.8414   -1.0045 C   0  0  0  0  0  4           0  0  0
    2.7972   -5.7145   -1.9990 C   0  0  0  0  0  4           0  0  0
  1  8  1  0     0  0
  2 23  2  0     0  0
  3 24  2  0     0  0
  4 23  1  0     0  0
  5 25  1  0     0  0
  6  9  1  0     0  0
  6 10  1  0     0  0
  6 26  1  0     0  0
  7  8  1  0     0  0
  7  9  2  0     0  0
  8 10  2  0     0  0
  9 27  1  0     0  0
 10 25  1  0     0  0
 11 12  1  0     0  0
 11 16  2  0     0  0
 11 23  1  0     0  0
 12 17  2  0     0  0
 12 24  1  0     0  0
 13 15  2  0     0  0
 13 18  1  0     0  0
 13 24  1  0     0  0
 14 15  1  0     0  0
 14 19  2  0     0  0
 14 26  1  0     0  0
 16 21  1  0     0  0
 17 22  1  0     0  0
 18 20  2  0     0  0
 19 20  1  0     0  0
 21 22  2  0     0  0
 27 28  1  0     0  0
 28 29  1  0     0  0
 29 30  1  0     0  0
M  END
> <standard_type>
pIC50

> <# Confs.>
25

> <canonical_smiles>
ClC(N=C1CCCC)=C(CO)N1CC2=CC=CC(C(C3=CC=CC=C3C(O)=O)=O)=C2

> <standard_relation>
=

> <Publication_ID>
nan

> <predicted_activity_value>
6.721246399047171

> <actual_activity_value>
6.795880017344075

> <Compound>
7

> <standard_units>
nM

> hash
16394989093989855569

$$$$
7_
XXILIB    08252103443D 0   0.00000     0.00000

 30 32  0     1  0            999 V2000
    5.0277    1.4596   -0.0265 Cl  0  0  0  0  0  1           0  0  0
   -4.5618    1.9286    2.8700 O   0  0  0  0  0  2           0  0  0
   -1.4778    2.5219    5.3067 O   0  0  0  0  0  2           0  0  0
   -5.3976    3.6431    4.0979 O   0  0  0  0  0  2           0  0  0
    1.5405    2.8932    1.3688 O   0  0  0  0  0  2           0  0  0
    1.4530   -0.0000    0.0000 N   0  0  0  0  0  3           0  0  0
    3.5352   -0.7623   -0.0079 N   0  0  0  0  0  3           0  0  0
    3.5486    0.6094   -0.0071 C   0  0  0  0  0  4           0  0  0
    2.2669   -1.1146    0.0000 C   0  0  0  0  0  4           0  0  0
    2.2623    1.1246    0.0085 C   0  0  0  0  0  4           0  0  0
   -3.3204    3.9431    2.9779 C   0  0  0  0  0  4           0  0  0
   -1.9879    3.6319    3.2935 C   0  0  0  0  0  4           0  0  0
   -1.2928    1.2101    3.3729 C   0  0  0  0  0  4           0  0  0
   -0.5412    0.0000    1.3970 C   0  0  0  0  0  4           0  0  0
   -0.7986    1.2101    2.0617 C   0  0  0  0  0  4           0  0  0
   -3.6194    5.1194    2.2790 C   0  0  0  0  0  4           0  0  0
   -0.9626    4.4845    2.8613 C   0  0  0  0  0  4           0  0  0
   -1.5247   -0.0065    4.0249 C   0  0  0  0  0  4           0  0  0
   -0.7724   -1.2086    2.0665 C   0  0  0  0  0  4           0  0  0
   -1.2630   -1.2106    3.3715 C   0  0  0  0  0  4           0  0  0
   -2.5920    5.9684    1.8689 C   0  0  0  0  0  4           0  0  0
   -1.2660    5.6476    2.1522 C   0  0  0  0  0  4           0  0  0
   -4.4660    3.0687    3.3007 C   0  0  0  0  0  4           0  0  0
   -1.5778    2.4562    4.0898 C   0  0  0  0  0  4           0  0  0
    1.7079    2.4956    0.0149 C   0  0  0  0  0  4           0  0  0
   -0.0000    0.0000    0.0000 C   0  0  0  0  0  4           0  0  0
    1.7822   -2.5218    0.0006 C   0  0  0  0  0  4           0  0  0
    2.5361   -3.3955   -0.9971 C   0  0  0  0  0  4           0  0  0
    2.4037   -2.8997   -2.4349 C   0  0  0  0  0  4           0  0  0
    3.1550   -3.7699   -3.4315 C   0  0  0  0  0  4           0  0  0
  1  8  1  0     0  0
  2 23  2  0     0  0
  3 24  2  0     0  0
  4 23  1  0     0  0
  5 25  1  0     0  0
  6  9  1  0     0  0
  6 10  1  0     0  0
  6 26  1  0     0  0
  7  8  1  0     0  0
  7  9  2  0     0  0
  8 10  2  0     0  0
  9 27  1  0     0  0
 10 25  1  0     0  0
 11 12  1  0     0  0
 11 16  2  0     0  0
 11 23  1  0     0  0
 12 17  2  0     0  0
 12 24  1  0     0  0
 13 15  2  0     0  0
 13 18  1  0     0  0
 13 24  1  0     0  0
 14 15  1  0     0  0
 14 19  2  0     0  0
 14 26  1  0     0  0
 16 21  1  0     0  0
 17 22  1  0     0  0
 18 20  2  0     0  0
 19 20  1  0     0  0
 21 22  2  0     0  0
 27 28  1  0     0  0
 28 29  1  0     0  0
 29 30  1  0     0  0
M  END
> <standard_type>
pIC50

> <# Confs.>
25

> <canonical_smiles>
ClC(N=C1CCCC)=C(CO)N1CC2=CC=CC(C(C3=CC=CC=C3C(O)=O)=O)=C2

> <standard_relation>
=

> <Publication_ID>
nan

> <predicted_activity_value>
6.721246399047171

> <actual_activity_value>
6.795880017344075

> <Compound>
7

> <standard_units>
nM

> hash
16394989093989855569

$$$$
7_
XXILIB    08252103443D 0   0.00000     0.00000

 30 32  0     1  0            999 V2000
    5.0277    1.4596   -0.0265 Cl  0  0  0  0  0  1           0  0  0
   -4.5675   -2.1559    5.3926 O   0  0  0  0  0  2           0  0  0
   -1.9027   -3.4763    3.4886 O   0  0  0  0  0  2           0  0  0
   -4.3906   -4.2106    6.3376 O   0  0  0  0  0  2           0  0  0
    1.5405    2.8932    1.3688 O   0  0  0  0  0  2           0  0  0
    1.4530   -0.0000    0.0000 N   0  0  0  0  0  3           0  0  0
    3.5352   -0.7623   -0.0079 N   0  0  0  0  0  3           0  0  0
    3.5486    0.6094   -0.0071 C   0  0  0  0  0  4           0  0  0
    2.2669   -1.1146    0.0000 C   0  0  0  0  0  4           0  0  0
    2.2623    1.1246    0.0085 C   0  0  0  0  0  4           0  0  0
   -2.5233   -2.7401    6.4371 C   0  0  0  0  0  4           0  0  0
   -1.4696   -2.4403    5.5585 C   0  0  0  0  0  4           0  0  0
   -1.3167   -1.2101    3.3636 C   0  0  0  0  0  4           0  0  0
   -0.5412    0.0000    1.3970 C   0  0  0  0  0  4           0  0  0
   -0.7986   -1.2101    2.0617 C   0  0  0  0  0  4           0  0  0
   -2.2973   -2.7706    7.8189 C   0  0  0  0  0  4           0  0  0
   -0.2073   -2.1272    6.0815 C   0  0  0  0  0  4           0  0  0
   -1.5845    0.0065    4.0017 C   0  0  0  0  0  4           0  0  0
   -0.8212    1.2086    2.0476 C   0  0  0  0  0  4           0  0  0
   -1.3378    1.2106    3.3425 C   0  0  0  0  0  4           0  0  0
   -1.0329   -2.4737    8.3266 C   0  0  0  0  0  4           0  0  0
    0.0077   -2.1447    7.4604 C   0  0  0  0  0  4           0  0  0
   -3.9113   -2.9905    5.9988 C   0  0  0  0  0  4           0  0  0
   -1.5890   -2.4562    4.0854 C   0  0  0  0  0  4           0  0  0
    1.7079    2.4956    0.0149 C   0  0  0  0  0  4           0  0  0
    0.0000    0.0000    0.0000 C   0  0  0  0  0  4           0  0  0
    1.7822   -2.5218    0.0006 C   0  0  0  0  0  4           0  0  0
    2.5361   -3.3955   -0.9971 C   0  0  0  0  0  4           0  0  0
    2.4037   -2.8997   -2.4349 C   0  0  0  0  0  4           0  0  0
    3.1550   -3.7699   -3.4315 C   0  0  0  0  0  4           0  0  0
  1  8  1  0     0  0
  2 23  2  0     0  0
  3 24  2  0     0  0
  4 23  1  0     0  0
  5 25  1  0     0  0
  6  9  1  0     0  0
  6 10  1  0     0  0
  6 26  1  0     0  0
  7  8  1  0     0  0
  7  9  2  0     0  0
  8 10  2  0     0  0
  9 27  1  0     0  0
 10 25  1  0     0  0
 11 12  1  0     0  0
 11 16  2  0     0  0
 11 23  1  0     0  0
 12 17  2  0     0  0
 12 24  1  0     0  0
 13 15  2  0     0  0
 13 18  1  0     0  0
 13 24  1  0     0  0
 14 15  1  0     0  0
 14 19  2  0     0  0
 14 26  1  0     0  0
 16 21  1  0     0  0
 17 22  1  0     0  0
 18 20  2  0     0  0
 19 20  1  0     0  0
 21 22  2  0     0  0
 27 28  1  0     0  0
 28 29  1  0     0  0
 29 30  1  0     0  0
M  END
> <standard_type>
pIC50

> <# Confs.>
25

> <canonical_smiles>
ClC(N=C1CCCC)=C(CO)N1CC2=CC=CC(C(C3=CC=CC=C3C(O)=O)=O)=C2

> <standard_relation>
=

> <Publication_ID>
nan

> <predicted_activity_value>
6.721246399047171

> <actual_activity_value>
6.795880017344075

> <Compound>
7

> <standard_units>
nM

> hash
16394989093989855569

$$$$
7_
XXILIB    08252103443D 0   0.00000     0.00000

 30 32  0     1  0            999 V2000
    5.0277   -1.4596    0.0265 Cl  0  0  0  0  0  1           0  0  0
   -3.8187    3.1587    1.2963 O   0  0  0  0  0  2           0  0  0
   -2.0089    2.4422    5.2340 O   0  0  0  0  0  2           0  0  0
   -4.5779    4.1868    3.1705 O   0  0  0  0  0  2           0  0  0
    2.4278   -3.2538   -0.9771 O   0  0  0  0  0  2           0  0  0
    1.4530    0.0000    0.0000 N   0  0  0  0  0  3           0  0  0
    3.5352    0.7623    0.0079 N   0  0  0  0  0  3           0  0  0
    3.5486   -0.6094    0.0071 C   0  0  0  0  0  4           0  0  0
    2.2669    1.1146   -0.0000 C   0  0  0  0  0  4           0  0  0
    2.2623   -1.1246   -0.0085 C   0  0  0  0  0  4           0  0  0
   -2.2782    4.3989    2.6000 C   0  0  0  0  0  4           0  0  0
   -1.3249    3.7307    3.3853 C   0  0  0  0  0  4           0  0  0
   -1.2928    1.2101    3.3729 C   0  0  0  0  0  4           0  0  0
   -0.5412   -0.0000    1.3970 C   0  0  0  0  0  4           0  0  0
   -0.7986    1.2101    2.0617 C   0  0  0  0  0  4           0  0  0
   -1.9710    5.6402    2.0290 C   0  0  0  0  0  4           0  0  0
   -0.0529    4.2961    3.5505 C   0  0  0  0  0  4           0  0  0
   -1.5247   -0.0065    4.0249 C   0  0  0  0  0  4           0  0  0
   -0.7724   -1.2086    2.0665 C   0  0  0  0  0  4           0  0  0
   -1.2630   -1.2106    3.3715 C   0  0  0  0  0  4           0  0  0
   -0.7077    6.2008    2.2142 C   0  0  0  0  0  4           0  0  0
    0.2520    5.5264    2.9664 C   0  0  0  0  0  4           0  0  0
   -3.6120    3.8491    2.2838 C   0  0  0  0  0  4           0  0  0
   -1.5778    2.4562    4.0898 C   0  0  0  0  0  4           0  0  0
    1.7079   -2.4956   -0.0149 C   0  0  0  0  0  4           0  0  0
    0.0000    0.0000    0.0000 C   0  0  0  0  0  4           0  0  0
    1.7822    2.5218   -0.0006 C   0  0  0  0  0  4           0  0  0
    2.5369    3.3949   -0.9983 C   0  0  0  0  0  4           0  0  0
    2.0472    4.8408   -1.0068 C   0  0  0  0  0  4           0  0  0
    2.7987    5.7133   -2.0012 C   0  0  0  0  0  4           0  0  0
  1  8  1  0     0  0
  2 23  2  0     0  0
  3 24  2  0     0  0
  4 23  1  0     0  0
  5 25  1  0     0  0
  6  9  1  0     0  0
  6 10  1  0     0  0
  6 26  1  0     0  0
  7  8  1  0     0  0
  7  9  2  0     0  0
  8 10  2  0     0  0
  9 27  1  0     0  0
 10 25  1  0     0  0
 11 12  1  0     0  0
 11 16  2  0     0  0
 11 23  1  0     0  0
 12 17  2  0     0  0
 12 24  1  0     0  0
 13 15  2  0     0  0
 13 18  1  0     0  0
 13 24  1  0     0  0
 14 15  1  0     0  0
 14 19  2  0     0  0
 14 26  1  0     0  0
 16 21  1  0     0  0
 17 22  1  0     0  0
 18 20  2  0     0  0
 19 20  1  0     0  0
 21 22  2  0     0  0
 27 28  1  0     0  0
 28 29  1  0     0  0
 29 30  1  0     0  0
M  END
> <standard_type>
pIC50

> <# Confs.>
25

> <canonical_smiles>
ClC(N=C1CCCC)=C(CO)N1CC2=CC=CC(C(C3=CC=CC=C3C(O)=O)=O)=C2

> <standard_relation>
=

> <Publication_ID>
nan

> <predicted_activity_value>
6.721246399047171

> <actual_activity_value>
6.795880017344075

> <Compound>
7

> <standard_units>
nM

> hash
16394989093989855569

$$$$
7_
XXILIB    08252103443D 0   0.00000     0.00000

 30 32  0     1  0            999 V2000
    5.0277    1.4596   -0.0265 Cl  0  0  0  0  0  1           0  0  0
    1.1248   -4.8058    3.4273 O   0  0  0  0  0  2           0  0  0
   -1.5099   -2.5102    5.3045 O   0  0  0  0  0  2           0  0  0
   -0.0522   -5.4780    5.2463 O   0  0  0  0  0  2           0  0  0
    1.5405    2.8932    1.3688 O   0  0  0  0  0  2           0  0  0
    1.4530   -0.0000    0.0000 N   0  0  0  0  0  3           0  0  0
    3.5352   -0.7623   -0.0079 N   0  0  0  0  0  3           0  0  0
    3.5486    0.6094   -0.0071 C   0  0  0  0  0  4           0  0  0
    2.2669   -1.1146    0.0000 C   0  0  0  0  0  4           0  0  0
    2.2623    1.1246    0.0085 C   0  0  0  0  0  4           0  0  0
   -1.2392   -4.8475    3.2834 C   0  0  0  0  0  4           0  0  0
   -1.9647   -3.6451    3.2919 C   0  0  0  0  0  4           0  0  0
   -1.3167   -1.2101    3.3636 C   0  0  0  0  0  4           0  0  0
   -0.5412    0.0000    1.3970 C   0  0  0  0  0  4           0  0  0
   -0.7986   -1.2101    2.0617 C   0  0  0  0  0  4           0  0  0
   -1.7121   -5.9470    2.5562 C   0  0  0  0  0  4           0  0  0
   -3.1366   -3.5447    2.5294 C   0  0  0  0  0  4           0  0  0
   -1.5845    0.0065    4.0017 C   0  0  0  0  0  4           0  0  0
   -0.8212    1.2086    2.0476 C   0  0  0  0  0  4           0  0  0
   -1.3378    1.2106    3.3425 C   0  0  0  0  0  4           0  0  0
   -2.8883   -5.8403    1.8148 C   0  0  0  0  0  4           0  0  0
   -3.5946   -4.6395    1.7948 C   0  0  0  0  0  4           0  0  0
    0.0541   -5.0306    3.9728 C   0  0  0  0  0  4           0  0  0
   -1.5890   -2.4562    4.0854 C   0  0  0  0  0  4           0  0  0
    1.7079    2.4956    0.0149 C   0  0  0  0  0  4           0  0  0
    0.0000   -0.0000    0.0000 C   0  0  0  0  0  4           0  0  0
    1.7822   -2.5218    0.0006 C   0  0  0  0  0  4           0  0  0
    2.5361   -3.3955   -0.9971 C   0  0  0  0  0  4           0  0  0
    2.0464   -4.8414   -1.0045 C   0  0  0  0  0  4           0  0  0
    2.7972   -5.7145   -1.9990 C   0  0  0  0  0  4           0  0  0
  1  8  1  0     0  0
  2 23  2  0     0  0
  3 24  2  0     0  0
  4 23  1  0     0  0
  5 25  1  0     0  0
  6  9  1  0     0  0
  6 10  1  0     0  0
  6 26  1  0     0  0
  7  8  1  0     0  0
  7  9  2  0     0  0
  8 10  2  0     0  0
  9 27  1  0     0  0
 10 25  1  0     0  0
 11 12  1  0     0  0
 11 16  2  0     0  0
 11 23  1  0     0  0
 12 17  2  0     0  0
 12 24  1  0     0  0
 13 15  2  0     0  0
 13 18  1  0     0  0
 13 24  1  0     0  0
 14 15  1  0     0  0
 14 19  2  0     0  0
 14 26  1  0     0  0
 16 21  1  0     0  0
 17 22  1  0     0  0
 18 20  2  0     0  0
 19 20  1  0     0  0
 21 22  2  0     0  0
 27 28  1  0     0  0
 28 29  1  0     0  0
 29 30  1  0     0  0
M  END
> <standard_type>
pIC50

> <# Confs.>
25

> <canonical_smiles>
ClC(N=C1CCCC)=C(CO)N1CC2=CC=CC(C(C3=CC=CC=C3C(O)=O)=O)=C2

> <standard_relation>
=

> <Publication_ID>
nan

> <predicted_activity_value>
6.721246399047171

> <actual_activity_value>
6.795880017344075

> <Compound>
7

> <standard_units>
nM

> hash
16394989093989855569

$$$$
7_
XXILIB    08252103443D 0   0.00000     0.00000

 30 32  0     1  0            999 V2000
    5.0277    1.4596   -0.0265 Cl  0  0  0  0  0  1           0  0  0
   -3.8187    3.1587    1.2963 O   0  0  0  0  0  2           0  0  0
   -2.0089    2.4422    5.2340 O   0  0  0  0  0  2           0  0  0
   -4.5779    4.1868    3.1705 O   0  0  0  0  0  2           0  0  0
    1.5405    2.8932    1.3688 O   0  0  0  0  0  2           0  0  0
    1.4530   -0.0000    0.0000 N   0  0  0  0  0  3           0  0  0
    3.5352   -0.7623   -0.0079 N   0  0  0  0  0  3           0  0  0
    3.5486    0.6094   -0.0071 C   0  0  0  0  0  4           0  0  0
    2.2669   -1.1146    0.0000 C   0  0  0  0  0  4           0  0  0
    2.2623    1.1246    0.0085 C   0  0  0  0  0  4           0  0  0
   -2.2782    4.3989    2.6000 C   0  0  0  0  0  4           0  0  0
   -1.3249    3.7307    3.3853 C   0  0  0  0  0  4           0  0  0
   -1.2928    1.2101    3.3729 C   0  0  0  0  0  4           0  0  0
   -0.5412   -0.0000    1.3970 C   0  0  0  0  0  4           0  0  0
   -0.7986    1.2101    2.0617 C   0  0  0  0  0  4           0  0  0
   -1.9710    5.6402    2.0290 C   0  0  0  0  0  4           0  0  0
   -0.0529    4.2961    3.5505 C   0  0  0  0  0  4           0  0  0
   -1.5247   -0.0065    4.0249 C   0  0  0  0  0  4           0  0  0
   -0.7724   -1.2086    2.0665 C   0  0  0  0  0  4           0  0  0
   -1.2630   -1.2106    3.3715 C   0  0  0  0  0  4           0  0  0
   -0.7077    6.2008    2.2142 C   0  0  0  0  0  4           0  0  0
    0.2520    5.5264    2.9664 C   0  0  0  0  0  4           0  0  0
   -3.6120    3.8491    2.2838 C   0  0  0  0  0  4           0  0  0
   -1.5778    2.4562    4.0898 C   0  0  0  0  0  4           0  0  0
    1.7079    2.4956    0.0149 C   0  0  0  0  0  4           0  0  0
    0.0000    0.0000    0.0000 C   0  0  0  0  0  4           0  0  0
    1.7822   -2.5218    0.0006 C   0  0  0  0  0  4           0  0  0
    2.5369   -3.3949    0.9983 C   0  0  0  0  0  4           0  0  0
    2.0472   -4.8408    1.0068 C   0  0  0  0  0  4           0  0  0
    2.7987   -5.7133    2.0012 C   0  0  0  0  0  4           0  0  0
  1  8  1  0     0  0
  2 23  2  0     0  0
  3 24  2  0     0  0
  4 23  1  0     0  0
  5 25  1  0     0  0
  6  9  1  0     0  0
  6 10  1  0     0  0
  6 26  1  0     0  0
  7  8  1  0     0  0
  7  9  2  0     0  0
  8 10  2  0     0  0
  9 27  1  0     0  0
 10 25  1  0     0  0
 11 12  1  0     0  0
 11 16  2  0     0  0
 11 23  1  0     0  0
 12 17  2  0     0  0
 12 24  1  0     0  0
 13 15  2  0     0  0
 13 18  1  0     0  0
 13 24  1  0     0  0
 14 15  1  0     0  0
 14 19  2  0     0  0
 14 26  1  0     0  0
 16 21  1  0     0  0
 17 22  1  0     0  0
 18 20  2  0     0  0
 19 20  1  0     0  0
 21 22  2  0     0  0
 27 28  1  0     0  0
 28 29  1  0     0  0
 29 30  1  0     0  0
M  END
> <standard_type>
pIC50

> <# Confs.>
25

> <canonical_smiles>
ClC(N=C1CCCC)=C(CO)N1CC2=CC=CC(C(C3=CC=CC=C3C(O)=O)=O)=C2

> <standard_relation>
=

> <Publication_ID>
nan

> <predicted_activity_value>
6.721246399047171

> <actual_activity_value>
6.795880017344075

> <Compound>
7

> <standard_units>
nM

> hash
16394989093989855569

$$$$
7_
XXILIB    08252103443D 0   0.00000     0.00000

 30 32  0     1  0            999 V2000
    5.0277    1.4596   -0.0265 Cl  0  0  0  0  0  1           0  0  0
    0.1630   -4.8001    3.7852 O   0  0  0  0  0  2           0  0  0
   -0.6727   -2.1642    5.6186 O   0  0  0  0  0  2           0  0  0
    1.3767   -5.4603    5.5845 O   0  0  0  0  0  2           0  0  0
    1.5405    2.8932    1.3688 O   0  0  0  0  0  2           0  0  0
    1.4530   -0.0000    0.0000 N   0  0  0  0  0  3           0  0  0
    3.5352   -0.7623   -0.0079 N   0  0  0  0  0  3           0  0  0
    3.5486    0.6094   -0.0071 C   0  0  0  0  0  4           0  0  0
    2.2669   -1.1146    0.0000 C   0  0  0  0  0  4           0  0  0
    2.2623    1.1246    0.0085 C   0  0  0  0  0  4           0  0  0
    1.9413   -3.4138    4.5111 C   0  0  0  0  0  4           0  0  0
    1.4639   -2.0986    4.6306 C   0  0  0  0  0  4           0  0  0
   -0.5153   -0.8647    3.6741 C   0  0  0  0  0  4           0  0  0
   -0.5412    0.0000    1.3970 C   0  0  0  0  0  4           0  0  0
   -0.0007   -0.8557    2.3708 C   0  0  0  0  0  4           0  0  0
    3.3138   -3.6514    4.3656 C   0  0  0  0  0  4           0  0  0
    2.3773   -1.0355    4.6499 C   0  0  0  0  0  4           0  0  0
   -1.5800   -0.0181    4.0034 C   0  0  0  0  0  4           0  0  0
   -1.6110    0.8361    1.7417 C   0  0  0  0  0  4           0  0  0
   -2.1250    0.8277    3.0376 C   0  0  0  0  0  4           0  0  0
    4.2116   -2.5844    4.3695 C   0  0  0  0  0  4           0  0  0
    3.7452   -1.2800    4.5195 C   0  0  0  0  0  4           0  0  0
    1.0769   -4.6096    4.5747 C   0  0  0  0  0  4           0  0  0
    0.0322   -1.7410    4.7134 C   0  0  0  0  0  4           0  0  0
    1.7079    2.4956    0.0149 C   0  0  0  0  0  4           0  0  0
    0.0000    0.0000    0.0000 C   0  0  0  0  0  4           0  0  0
    1.7822   -2.5218    0.0006 C   0  0  0  0  0  4           0  0  0
    2.5361   -3.3955   -0.9971 C   0  0  0  0  0  4           0  0  0
    2.4037   -2.8997   -2.4349 C   0  0  0  0  0  4           0  0  0
    3.1550   -3.7699   -3.4315 C   0  0  0  0  0  4           0  0  0
  1  8  1  0     0  0
  2 23  2  0     0  0
  3 24  2  0     0  0
  4 23  1  0     0  0
  5 25  1  0     0  0
  6  9  1  0     0  0
  6 10  1  0     0  0
  6 26  1  0     0  0
  7  8  1  0     0  0
  7  9  2  0     0  0
  8 10  2  0     0  0
  9 27  1  0     0  0
 10 25  1  0     0  0
 11 12  1  0     0  0
 11 16  2  0     0  0
 11 23  1  0     0  0
 12 17  2  0     0  0
 12 24  1  0     0  0
 13 15  2  0     0  0
 13 18  1  0     0  0
 13 24  1  0     0  0
 14 15  1  0     0  0
 14 19  2  0     0  0
 14 26  1  0     0  0
 16 21  1  0     0  0
 17 22  1  0     0  0
 18 20  2  0     0  0
 19 20  1  0     0  0
 21 22  2  0     0  0
 27 28  1  0     0  0
 28 29  1  0     0  0
 29 30  1  0     0  0
M  END
> <standard_type>
pIC50

> <# Confs.>
25

> <canonical_smiles>
ClC(N=C1CCCC)=C(CO)N1CC2=CC=CC(C(C3=CC=CC=C3C(O)=O)=O)=C2

> <standard_relation>
=

> <Publication_ID>
nan

> <predicted_activity_value>
6.721246399047171

> <actual_activity_value>
6.795880017344075

> <Compound>
7

> <standard_units>
nM

> hash
16394989093989855569

$$$$
7_
XXILIB    08252103443D 0   0.00000     0.00000

 30 32  0     1  0            999 V2000
    5.0277   -1.4596    0.0265 Cl  0  0  0  0  0  1           0  0  0
    0.1630   -4.8001    3.7852 O   0  0  0  0  0  2           0  0  0
   -0.6727   -2.1642    5.6186 O   0  0  0  0  0  2           0  0  0
    1.3767   -5.4603    5.5845 O   0  0  0  0  0  2           0  0  0
    1.5405   -2.8932   -1.3688 O   0  0  0  0  0  2           0  0  0
    1.4530    0.0000    0.0000 N   0  0  0  0  0  3           0  0  0
    3.5352    0.7623    0.0079 N   0  0  0  0  0  3           0  0  0
    3.5486   -0.6094    0.0071 C   0  0  0  0  0  4           0  0  0
    2.2669    1.1146    0.0000 C   0  0  0  0  0  4           0  0  0
    2.2623   -1.1246   -0.0085 C   0  0  0  0  0  4           0  0  0
    1.9413   -3.4138    4.5111 C   0  0  0  0  0  4           0  0  0
    1.4639   -2.0986    4.6306 C   0  0  0  0  0  4           0  0  0
   -0.5153   -0.8647    3.6741 C   0  0  0  0  0  4           0  0  0
   -0.5412    0.0000    1.3970 C   0  0  0  0  0  4           0  0  0
   -0.0007   -0.8557    2.3708 C   0  0  0  0  0  4           0  0  0
    3.3138   -3.6514    4.3656 C   0  0  0  0  0  4           0  0  0
    2.3773   -1.0355    4.6499 C   0  0  0  0  0  4           0  0  0
   -1.5800   -0.0181    4.0034 C   0  0  0  0  0  4           0  0  0
   -1.6110    0.8361    1.7417 C   0  0  0  0  0  4           0  0  0
   -2.1250    0.8277    3.0376 C   0  0  0  0  0  4           0  0  0
    4.2116   -2.5844    4.3695 C   0  0  0  0  0  4           0  0  0
    3.7452   -1.2800    4.5195 C   0  0  0  0  0  4           0  0  0
    1.0769   -4.6096    4.5747 C   0  0  0  0  0  4           0  0  0
    0.0322   -1.7410    4.7134 C   0  0  0  0  0  4           0  0  0
    1.7079   -2.4956   -0.0149 C   0  0  0  0  0  4           0  0  0
    0.0000    0.0000    0.0000 C   0  0  0  0  0  4           0  0  0
    1.7822    2.5218   -0.0006 C   0  0  0  0  0  4           0  0  0
    2.9272    3.5298   -0.0004 C   0  0  0  0  0  4           0  0  0
    2.4406    4.9768   -0.0011 C   0  0  0  0  0  4           0  0  0
    3.5812    5.9837   -0.0009 C   0  0  0  0  0  4           0  0  0
  1  8  1  0     0  0
  2 23  2  0     0  0
  3 24  2  0     0  0
  4 23  1  0     0  0
  5 25  1  0     0  0
  6  9  1  0     0  0
  6 10  1  0     0  0
  6 26  1  0     0  0
  7  8  1  0     0  0
  7  9  2  0     0  0
  8 10  2  0     0  0
  9 27  1  0     0  0
 10 25  1  0     0  0
 11 12  1  0     0  0
 11 16  2  0     0  0
 11 23  1  0     0  0
 12 17  2  0     0  0
 12 24  1  0     0  0
 13 15  2  0     0  0
 13 18  1  0     0  0
 13 24  1  0     0  0
 14 15  1  0     0  0
 14 19  2  0     0  0
 14 26  1  0     0  0
 16 21  1  0     0  0
 17 22  1  0     0  0
 18 20  2  0     0  0
 19 20  1  0     0  0
 21 22  2  0     0  0
 27 28  1  0     0  0
 28 29  1  0     0  0
 29 30  1  0     0  0
M  END
> <standard_type>
pIC50

> <# Confs.>
25

> <canonical_smiles>
ClC(N=C1CCCC)=C(CO)N1CC2=CC=CC(C(C3=CC=CC=C3C(O)=O)=O)=C2

> <standard_relation>
=

> <Publication_ID>
nan

> <predicted_activity_value>
6.721246399047171

> <actual_activity_value>
6.795880017344075

> <Compound>
7

> <standard_units>
nM

> hash
16394989093989855569

$$$$
7_
XXILIB    08252103443D 0   0.00000     0.00000

 30 32  0     1  0            999 V2000
    5.0277   -1.4596    0.0265 Cl  0  0  0  0  0  1           0  0  0
   -3.1401    4.8058    1.7752 O   0  0  0  0  0  2           0  0  0
   -2.4575    2.5102    4.9374 O   0  0  0  0  0  2           0  0  0
   -3.4955    5.4780    3.9125 O   0  0  0  0  0  2           0  0  0
    2.4278   -3.2538   -0.9771 O   0  0  0  0  0  2           0  0  0
    1.4530    0.0000    0.0000 N   0  0  0  0  0  3           0  0  0
    3.5352    0.7623    0.0079 N   0  0  0  0  0  3           0  0  0
    3.5486   -0.6094    0.0071 C   0  0  0  0  0  4           0  0  0
    2.2669    1.1146   -0.0000 C   0  0  0  0  0  4           0  0  0
    2.2623   -1.1246   -0.0085 C   0  0  0  0  0  4           0  0  0
   -1.2960    4.8475    3.2614 C   0  0  0  0  0  4           0  0  0
   -0.7656    3.6451    3.7564 C   0  0  0  0  0  4           0  0  0
   -1.2928    1.2101    3.3729 C   0  0  0  0  0  4           0  0  0
   -0.5412    0.0000    1.3970 C   0  0  0  0  0  4           0  0  0
   -0.7986    1.2101    2.0617 C   0  0  0  0  0  4           0  0  0
   -0.4566    5.9470    3.0425 C   0  0  0  0  0  4           0  0  0
    0.6142    3.5447    3.9823 C   0  0  0  0  0  4           0  0  0
   -1.5247   -0.0065    4.0249 C   0  0  0  0  0  4           0  0  0
   -0.7724   -1.2086    2.0665 C   0  0  0  0  0  4           0  0  0
   -1.2630   -1.2106    3.3715 C   0  0  0  0  0  4           0  0  0
    0.9121    5.8403    3.2869 C   0  0  0  0  0  4           0  0  0
    1.4476    4.6395    3.7480 C   0  0  0  0  0  4           0  0  0
   -2.7162    5.0306    2.8997 C   0  0  0  0  0  4           0  0  0
   -1.5778    2.4562    4.0898 C   0  0  0  0  0  4           0  0  0
    1.7079   -2.4956   -0.0149 C   0  0  0  0  0  4           0  0  0
    0.0000    0.0000    0.0000 C   0  0  0  0  0  4           0  0  0
    1.7822    2.5218   -0.0006 C   0  0  0  0  0  4           0  0  0
    2.5369    3.3949   -0.9983 C   0  0  0  0  0  4           0  0  0
    2.4056    2.8983   -2.4358 C   0  0  0  0  0  4           0  0  0
    3.1577    3.7679   -3.4323 C   0  0  0  0  0  4           0  0  0
  1  8  1  0     0  0
  2 23  2  0     0  0
  3 24  2  0     0  0
  4 23  1  0     0  0
  5 25  1  0     0  0
  6  9  1  0     0  0
  6 10  1  0     0  0
  6 26  1  0     0  0
  7  8  1  0     0  0
  7  9  2  0     0  0
  8 10  2  0     0  0
  9 27  1  0     0  0
 10 25  1  0     0  0
 11 12  1  0     0  0
 11 16  2  0     0  0
 11 23  1  0     0  0
 12 17  2  0     0  0
 12 24  1  0     0  0
 13 15  2  0     0  0
 13 18  1  0     0  0
 13 24  1  0     0  0
 14 15  1  0     0  0
 14 19  2  0     0  0
 14 26  1  0     0  0
 16 21  1  0     0  0
 17 22  1  0     0  0
 18 20  2  0     0  0
 19 20  1  0     0  0
 21 22  2  0     0  0
 27 28  1  0     0  0
 28 29  1  0     0  0
 29 30  1  0     0  0
M  END
> <standard_type>
pIC50

> <# Confs.>
25

> <canonical_smiles>
ClC(N=C1CCCC)=C(CO)N1CC2=CC=CC(C(C3=CC=CC=C3C(O)=O)=O)=C2

> <standard_relation>
=

> <Publication_ID>
nan

> <predicted_activity_value>
6.721246399047171

> <actual_activity_value>
6.795880017344075

> <Compound>
7

> <standard_units>
nM

> hash
16394989093989855569

$$$$
7_
XXILIB    08252103443D 0   0.00000     0.00000

 30 32  0     1  0            999 V2000
    5.0277   -1.4596    0.0265 Cl  0  0  0  0  0  1           0  0  0
    0.1630   -4.8001    3.7852 O   0  0  0  0  0  2           0  0  0
   -0.6727   -2.1642    5.6186 O   0  0  0  0  0  2           0  0  0
    1.3767   -5.4603    5.5845 O   0  0  0  0  0  2           0  0  0
    1.5405   -2.8932   -1.3688 O   0  0  0  0  0  2           0  0  0
    1.4530    0.0000    0.0000 N   0  0  0  0  0  3           0  0  0
    3.5352    0.7623    0.0079 N   0  0  0  0  0  3           0  0  0
    3.5486   -0.6094    0.0071 C   0  0  0  0  0  4           0  0  0
    2.2669    1.1146    0.0000 C   0  0  0  0  0  4           0  0  0
    2.2623   -1.1246   -0.0085 C   0  0  0  0  0  4           0  0  0
    1.9413   -3.4138    4.5111 C   0  0  0  0  0  4           0  0  0
    1.4639   -2.0986    4.6306 C   0  0  0  0  0  4           0  0  0
   -0.5153   -0.8647    3.6741 C   0  0  0  0  0  4           0  0  0
   -0.5412    0.0000    1.3970 C   0  0  0  0  0  4           0  0  0
   -0.0007   -0.8557    2.3708 C   0  0  0  0  0  4           0  0  0
    3.3138   -3.6514    4.3656 C   0  0  0  0  0  4           0  0  0
    2.3773   -1.0355    4.6499 C   0  0  0  0  0  4           0  0  0
   -1.5800   -0.0181    4.0034 C   0  0  0  0  0  4           0  0  0
   -1.6110    0.8361    1.7417 C   0  0  0  0  0  4           0  0  0
   -2.1250    0.8277    3.0376 C   0  0  0  0  0  4           0  0  0
    4.2116   -2.5844    4.3695 C   0  0  0  0  0  4           0  0  0
    3.7452   -1.2800    4.5195 C   0  0  0  0  0  4           0  0  0
    1.0769   -4.6096    4.5747 C   0  0  0  0  0  4           0  0  0
    0.0322   -1.7410    4.7134 C   0  0  0  0  0  4           0  0  0
    1.7079   -2.4956   -0.0149 C   0  0  0  0  0  4           0  0  0
    0.0000    0.0000    0.0000 C   0  0  0  0  0  4           0  0  0
    1.7822    2.5218   -0.0006 C   0  0  0  0  0  4           0  0  0
    1.5938    3.0699   -1.4118 C   0  0  0  0  0  4           0  0  0
    2.8854    3.0637   -2.2254 C   0  0  0  0  0  4           0  0  0
    2.6996    3.6100   -3.6332 C   0  0  0  0  0  4           0  0  0
  1  8  1  0     0  0
  2 23  2  0     0  0
  3 24  2  0     0  0
  4 23  1  0     0  0
  5 25  1  0     0  0
  6  9  1  0     0  0
  6 10  1  0     0  0
  6 26  1  0     0  0
  7  8  1  0     0  0
  7  9  2  0     0  0
  8 10  2  0     0  0
  9 27  1  0     0  0
 10 25  1  0     0  0
 11 12  1  0     0  0
 11 16  2  0     0  0
 11 23  1  0     0  0
 12 17  2  0     0  0
 12 24  1  0     0  0
 13 15  2  0     0  0
 13 18  1  0     0  0
 13 24  1  0     0  0
 14 15  1  0     0  0
 14 19  2  0     0  0
 14 26  1  0     0  0
 16 21  1  0     0  0
 17 22  1  0     0  0
 18 20  2  0     0  0
 19 20  1  0     0  0
 21 22  2  0     0  0
 27 28  1  0     0  0
 28 29  1  0     0  0
 29 30  1  0     0  0
M  END
> <standard_type>
pIC50

> <# Confs.>
25

> <canonical_smiles>
ClC(N=C1CCCC)=C(CO)N1CC2=CC=CC(C(C3=CC=CC=C3C(O)=O)=O)=C2

> <standard_relation>
=

> <Publication_ID>
nan

> <predicted_activity_value>
6.721246399047171

> <actual_activity_value>
6.795880017344075

> <Compound>
7

> <standard_units>
nM

> hash
16394989093989855569

$$$$
20_
XXILIB    08252103443D 0   0.00000     0.00000

 32 34  0     1  0            999 V2000
    5.0035   -1.4900   -0.1073 Cl  0  0  0  0  0  1           0  0  0
    2.5406   -0.1092    5.3851 F   0  0  0  0  0  1           0  0  0
    3.3358    1.0084    7.0809 F   0  0  0  0  0  1           0  0  0
    3.2822   -1.1694    7.1382 F   0  0  0  0  0  1           0  0  0
    1.0550    0.0340    8.5707 O   0  0  0  0  0  2           0  0  0
    1.6633   -2.9423    1.3061 O   0  0  0  0  0  2           0  0  0
    1.4517    0.0000    0.0000 N   0  0  0  0  0  3           0  0  0
    3.5366    0.7655   -0.0328 N   0  0  0  0  0  3           0  0  0
    0.2259   -0.0244    6.4006 N   0  0  0  0  0  3           0  0  0
    3.5479   -0.6046   -0.0559 C   0  0  0  0  0  4           0  0  0
    2.2661    1.1153    0.0000 C   0  0  0  0  0  4           0  0  0
    2.2641   -1.1156   -0.0350 C   0  0  0  0  0  4           0  0  0
   -1.1722    0.0142    6.5642 C   0  0  0  0  0  4           0  0  0
   -2.0200    0.0032    5.4303 C   0  0  0  0  0  4           0  0  0
   -1.5198    0.0013    4.0509 C   0  0  0  0  0  4           0  0  0
   -0.5417    0.0000    1.3969 C   0  0  0  0  0  4           0  0  0
   -1.7313    0.0427    7.8540 C   0  0  0  0  0  4           0  0  0
   -3.4142    0.0046    5.6420 C   0  0  0  0  0  4           0  0  0
   -1.2843    1.2059    3.3717 C   0  0  0  0  0  4           0  0  0
   -1.2592   -1.2042    3.3826 C   0  0  0  0  0  4           0  0  0
   -0.7992    1.2054    2.0608 C   0  0  0  0  0  4           0  0  0
   -0.7725   -1.2050    2.0722 C   0  0  0  0  0  4           0  0  0
   -3.1142    0.0518    8.0319 C   0  0  0  0  0  4           0  0  0
   -3.9557    0.0298    6.9271 C   0  0  0  0  0  4           0  0  0
    2.5882   -0.0725    6.7413 C   0  0  2  0  0  4           0  0  0
    1.2195   -0.0221    7.3546 C   0  0  0  0  0  4           0  0  0
    1.7757   -2.5111   -0.0435 C   0  0  0  0  0  4           0  0  0
    0.0000   -0.0000    0.0000 C   0  0  0  0  0  4           0  0  0
    1.7755    2.5195    0.0391 C   0  0  0  0  0  4           0  0  0
    2.5143    3.3935   -0.9680 C   0  0  0  0  0  4           0  0  0
    2.3740    2.9434   -2.4227 C   0  0  0  0  0  4           0  0  0
    3.1244    3.8397   -3.3963 C   0  0  0  0  0  4           0  0  0
  1 10  1  0     0  0
  2 25  1  0     0  0
  3 25  1  0     0  0
  4 25  1  0     0  0
  5 26  2  0     0  0
  6 27  1  0     0  0
  7 11  1  0     0  0
  7 12  1  0     0  0
  7 28  1  0     0  0
  8 10  1  0     0  0
  8 11  2  0     0  0
  9 13  1  0     0  0
  9 26  1  0     0  0
 10 12  2  0     0  0
 11 29  1  0     0  0
 12 27  1  0     0  0
 13 14  1  0     0  0
 13 17  2  0     0  0
 14 15  1  0     0  0
 14 18  2  0     0  0
 15 19  2  0     0  0
 15 20  1  0     0  0
 16 21  2  0     0  0
 16 22  1  0     0  0
 16 28  1  0     0  0
 17 23  1  0     0  0
 18 24  1  0     0  0
 19 21  1  0     0  0
 20 22  2  0     0  0
 23 24  2  0     0  0
 25 26  1  0     0  0
 29 30  1  0     0  0
 30 31  1  0     0  0
 31 32  1  0     0  0
M  END
> <standard_type>
pIC50

> <# Confs.>
25

> <canonical_smiles>
ClC(N=C1CCCC)=C(CO)N1CC2=CC=C(C3=CC=CC=C3NC(C(F)(F)F)=O)C=C2

> <standard_relation>
=

> <Publication_ID>
nan

> <predicted_activity_value>
5.045757490560675

> <actual_activity_value>
5.200659450546418

> <Compound>
20

> <standard_units>
nM

> hash
13975603633165952417

$$$$
20_
XXILIB    08252103443D 0   0.00000     0.00000

 32 34  0     1  0            999 V2000
    5.0035   -1.4900   -0.1073 Cl  0  0  0  0  0  1           0  0  0
    2.5406   -0.1092    5.3851 F   0  0  0  0  0  1           0  0  0
    3.3358    1.0084    7.0809 F   0  0  0  0  0  1           0  0  0
    3.2822   -1.1694    7.1382 F   0  0  0  0  0  1           0  0  0
    1.0550    0.0340    8.5707 O   0  0  0  0  0  2           0  0  0
    1.6633   -2.9423    1.3061 O   0  0  0  0  0  2           0  0  0
    1.4517    0.0000    0.0000 N   0  0  0  0  0  3           0  0  0
    3.5366    0.7655   -0.0328 N   0  0  0  0  0  3           0  0  0
    0.2259   -0.0244    6.4006 N   0  0  0  0  0  3           0  0  0
    3.5479   -0.6046   -0.0559 C   0  0  0  0  0  4           0  0  0
    2.2661    1.1153    0.0000 C   0  0  0  0  0  4           0  0  0
    2.2641   -1.1156   -0.0350 C   0  0  0  0  0  4           0  0  0
   -1.1722    0.0142    6.5642 C   0  0  0  0  0  4           0  0  0
   -2.0200    0.0032    5.4303 C   0  0  0  0  0  4           0  0  0
   -1.5198    0.0013    4.0509 C   0  0  0  0  0  4           0  0  0
   -0.5417    0.0000    1.3969 C   0  0  0  0  0  4           0  0  0
   -1.7313    0.0427    7.8540 C   0  0  0  0  0  4           0  0  0
   -3.4142    0.0046    5.6420 C   0  0  0  0  0  4           0  0  0
   -1.2843    1.2059    3.3717 C   0  0  0  0  0  4           0  0  0
   -1.2592   -1.2042    3.3826 C   0  0  0  0  0  4           0  0  0
   -0.7992    1.2054    2.0608 C   0  0  0  0  0  4           0  0  0
   -0.7725   -1.2050    2.0722 C   0  0  0  0  0  4           0  0  0
   -3.1142    0.0518    8.0319 C   0  0  0  0  0  4           0  0  0
   -3.9557    0.0298    6.9271 C   0  0  0  0  0  4           0  0  0
    2.5882   -0.0725    6.7413 C   0  0  2  0  0  4           0  0  0
    1.2195   -0.0221    7.3546 C   0  0  0  0  0  4           0  0  0
    1.7757   -2.5111   -0.0435 C   0  0  0  0  0  4           0  0  0
    0.0000   -0.0000    0.0000 C   0  0  0  0  0  4           0  0  0
    1.7755    2.5195    0.0391 C   0  0  0  0  0  4           0  0  0
    2.5143    3.3935   -0.9680 C   0  0  0  0  0  4           0  0  0
    2.0662    4.8554   -0.9893 C   0  0  0  0  0  4           0  0  0
    2.8259    5.6943   -2.0059 C   0  0  0  0  0  4           0  0  0
  1 10  1  0     0  0
  2 25  1  0     0  0
  3 25  1  0     0  0
  4 25  1  0     0  0
  5 26  2  0     0  0
  6 27  1  0     0  0
  7 11  1  0     0  0
  7 12  1  0     0  0
  7 28  1  0     0  0
  8 10  1  0     0  0
  8 11  2  0     0  0
  9 13  1  0     0  0
  9 26  1  0     0  0
 10 12  2  0     0  0
 11 29  1  0     0  0
 12 27  1  0     0  0
 13 14  1  0     0  0
 13 17  2  0     0  0
 14 15  1  0     0  0
 14 18  2  0     0  0
 15 19  2  0     0  0
 15 20  1  0     0  0
 16 21  2  0     0  0
 16 22  1  0     0  0
 16 28  1  0     0  0
 17 23  1  0     0  0
 18 24  1  0     0  0
 19 21  1  0     0  0
 20 22  2  0     0  0
 23 24  2  0     0  0
 25 26  1  0     0  0
 29 30  1  0     0  0
 30 31  1  0     0  0
 31 32  1  0     0  0
M  END
> <standard_type>
pIC50

> <# Confs.>
25

> <canonical_smiles>
ClC(N=C1CCCC)=C(CO)N1CC2=CC=C(C3=CC=CC=C3NC(C(F)(F)F)=O)C=C2

> <standard_relation>
=

> <Publication_ID>
nan

> <predicted_activity_value>
5.045757490560675

> <actual_activity_value>
5.200659450546418

> <Compound>
20

> <standard_units>
nM

> hash
13975603633165952417

$$$$
20_
XXILIB    08252103443D 0   0.00000     0.00000

 32 34  0     1  0            999 V2000
    5.0035    1.4900    0.1073 Cl  0  0  0  0  0  1           0  0  0
   -1.6552   -4.2262    3.9601 F   0  0  0  0  0  1           0  0  0
   -1.1064   -5.5223    5.6263 F   0  0  0  0  0  1           0  0  0
   -3.1608   -5.4899    4.9000 F   0  0  0  0  0  1           0  0  0
   -2.7935   -3.8383    7.2660 O   0  0  0  0  0  2           0  0  0
    1.6633    2.9423   -1.3061 O   0  0  0  0  0  2           0  0  0
    1.4517    0.0000   -0.0000 N   0  0  0  0  0  3           0  0  0
    3.5366   -0.7655    0.0328 N   0  0  0  0  0  3           0  0  0
   -2.1963   -2.3582    5.5769 N   0  0  0  0  0  3           0  0  0
    3.5479    0.6046    0.0559 C   0  0  0  0  0  4           0  0  0
    2.2661   -1.1153    0.0000 C   0  0  0  0  0  4           0  0  0
    2.2641    1.1156    0.0350 C   0  0  0  0  0  4           0  0  0
   -2.3796   -1.0860    6.1520 C   0  0  0  0  0  4           0  0  0
   -2.0976    0.0801    5.4001 C   0  0  0  0  0  4           0  0  0
   -1.5655    0.0477    4.0332 C   0  0  0  0  0  4           0  0  0
   -0.5417    0.0000    1.3969 C   0  0  0  0  0  4           0  0  0
   -2.8630   -0.9691    7.4672 C   0  0  0  0  0  4           0  0  0
   -2.3319    1.3332    6.0030 C   0  0  0  0  0  4           0  0  0
   -2.4289    0.0217    2.9279 C   0  0  0  0  0  4           0  0  0
   -0.1822    0.0490    3.8002 C   0  0  0  0  0  4           0  0  0
   -1.9230   -0.0000    1.6250 C   0  0  0  0  0  4           0  0  0
    0.3240    0.0290    2.4974 C   0  0  0  0  0  4           0  0  0
   -3.0771    0.2841    8.0397 C   0  0  0  0  0  4           0  0  0
   -2.8147    1.4349    7.3076 C   0  0  0  0  0  4           0  0  0
   -2.0832   -4.7054    5.1560 C   0  0  2  0  0  4           0  0  0
   -2.4072   -3.6049    6.1234 C   0  0  0  0  0  4           0  0  0
    1.7757    2.5111    0.0435 C   0  0  0  0  0  4           0  0  0
    0.0000    0.0000   -0.0000 C   0  0  0  0  0  4           0  0  0
    1.7755   -2.5195   -0.0391 C   0  0  0  0  0  4           0  0  0
    1.6292   -3.0164   -1.4728 C   0  0  0  0  0  4           0  0  0
    1.1280   -4.4556   -1.5981 C   0  0  0  0  0  4           0  0  0
    0.9953   -4.9142   -3.0426 C   0  0  0  0  0  4           0  0  0
  1 10  1  0     0  0
  2 25  1  0     0  0
  3 25  1  0     0  0
  4 25  1  0     0  0
  5 26  2  0     0  0
  6 27  1  0     0  0
  7 11  1  0     0  0
  7 12  1  0     0  0
  7 28  1  0     0  0
  8 10  1  0     0  0
  8 11  2  0     0  0
  9 13  1  0     0  0
  9 26  1  0     0  0
 10 12  2  0     0  0
 11 29  1  0     0  0
 12 27  1  0     0  0
 13 14  1  0     0  0
 13 17  2  0     0  0
 14 15  1  0     0  0
 14 18  2  0     0  0
 15 19  2  0     0  0
 15 20  1  0     0  0
 16 21  2  0     0  0
 16 22  1  0     0  0
 16 28  1  0     0  0
 17 23  1  0     0  0
 18 24  1  0     0  0
 19 21  1  0     0  0
 20 22  2  0     0  0
 23 24  2  0     0  0
 25 26  1  0     0  0
 29 30  1  0     0  0
 30 31  1  0     0  0
 31 32  1  0     0  0
M  END
> <standard_type>
pIC50

> <# Confs.>
25

> <canonical_smiles>
ClC(N=C1CCCC)=C(CO)N1CC2=CC=C(C3=CC=CC=C3NC(C(F)(F)F)=O)C=C2

> <standard_relation>
=

> <Publication_ID>
nan

> <predicted_activity_value>
5.045757490560675

> <actual_activity_value>
5.200659450546418

> <Compound>
20

> <standard_units>
nM

> hash
13975603633165952417

$$$$
20_
XXILIB    08252103443D 0   0.00000     0.00000

 32 34  0     1  0            999 V2000
    5.0035    1.4900    0.1073 Cl  0  0  0  0  0  1           0  0  0
   -1.3815    4.3158    3.8641 F   0  0  0  0  0  1           0  0  0
   -2.8911    5.6704    4.6661 F   0  0  0  0  0  1           0  0  0
   -0.8869    5.6411    5.5214 F   0  0  0  0  0  1           0  0  0
   -2.7830    4.0825    7.0823 O   0  0  0  0  0  2           0  0  0
    1.6633    2.9423   -1.3061 O   0  0  0  0  0  2           0  0  0
    1.4517    0.0000   -0.0000 N   0  0  0  0  0  3           0  0  0
    3.5366   -0.7655    0.0328 N   0  0  0  0  0  3           0  0  0
   -2.1054    2.5248    5.4965 N   0  0  0  0  0  3           0  0  0
    3.5479    0.6046    0.0559 C   0  0  0  0  0  4           0  0  0
    2.2661   -1.1153    0.0000 C   0  0  0  0  0  4           0  0  0
    2.2641    1.1156    0.0350 C   0  0  0  0  0  4           0  0  0
   -2.3793    1.2805    6.0960 C   0  0  0  0  0  4           0  0  0
   -2.0976    0.0801    5.4001 C   0  0  0  0  0  4           0  0  0
   -1.5655    0.0477    4.0332 C   0  0  0  0  0  4           0  0  0
   -0.5417   -0.0000    1.3969 C   0  0  0  0  0  4           0  0  0
   -2.9138    1.2255    7.3954 C   0  0  0  0  0  4           0  0  0
   -2.3525   -1.1432    6.0537 C   0  0  0  0  0  4           0  0  0
   -2.4289    0.0217    2.9279 C   0  0  0  0  0  4           0  0  0
   -0.1822    0.0490    3.8002 C   0  0  0  0  0  4           0  0  0
   -1.9230    0.0000    1.6250 C   0  0  0  0  0  4           0  0  0
    0.3240    0.0290    2.4974 C   0  0  0  0  0  4           0  0  0
   -3.1630    0.0005    8.0130 C   0  0  0  0  0  4           0  0  0
   -2.8800   -1.1835    7.3442 C   0  0  0  0  0  4           0  0  0
   -1.8666    4.8506    5.0137 C   0  0  2  0  0  4           0  0  0
   -2.2993    3.7962    5.9900 C   0  0  0  0  0  4           0  0  0
    1.7757    2.5111    0.0435 C   0  0  0  0  0  4           0  0  0
    0.0000    0.0000    0.0000 C   0  0  0  0  0  4           0  0  0
    1.7755   -2.5195   -0.0391 C   0  0  0  0  0  4           0  0  0
    1.6292   -3.0164   -1.4728 C   0  0  0  0  0  4           0  0  0
    1.1280   -4.4556   -1.5981 C   0  0  0  0  0  4           0  0  0
    0.9953   -4.9142   -3.0426 C   0  0  0  0  0  4           0  0  0
  1 10  1  0     0  0
  2 25  1  0     0  0
  3 25  1  0     0  0
  4 25  1  0     0  0
  5 26  2  0     0  0
  6 27  1  0     0  0
  7 11  1  0     0  0
  7 12  1  0     0  0
  7 28  1  0     0  0
  8 10  1  0     0  0
  8 11  2  0     0  0
  9 13  1  0     0  0
  9 26  1  0     0  0
 10 12  2  0     0  0
 11 29  1  0     0  0
 12 27  1  0     0  0
 13 14  1  0     0  0
 13 17  2  0     0  0
 14 15  1  0     0  0
 14 18  2  0     0  0
 15 19  2  0     0  0
 15 20  1  0     0  0
 16 21  2  0     0  0
 16 22  1  0     0  0
 16 28  1  0     0  0
 17 23  1  0     0  0
 18 24  1  0     0  0
 19 21  1  0     0  0
 20 22  2  0     0  0
 23 24  2  0     0  0
 25 26  1  0     0  0
 29 30  1  0     0  0
 30 31  1  0     0  0
 31 32  1  0     0  0
M  END
> <standard_type>
pIC50

> <# Confs.>
25

> <canonical_smiles>
ClC(N=C1CCCC)=C(CO)N1CC2=CC=C(C3=CC=CC=C3NC(C(F)(F)F)=O)C=C2

> <standard_relation>
=

> <Publication_ID>
nan

> <predicted_activity_value>
5.045757490560675

> <actual_activity_value>
5.200659450546418

> <Compound>
20

> <standard_units>
nM

> hash
13975603633165952417

$$$$
20_
XXILIB    08252103443D 0   0.00000     0.00000

 32 34  0     1  0            999 V2000
    5.0035   -1.4900   -0.1073 Cl  0  0  0  0  0  1           0  0  0
   -5.4916    0.1114    2.4723 F   0  0  0  0  0  1           0  0  0
   -7.1899   -1.0027    3.2670 F   0  0  0  0  0  1           0  0  0
   -7.1836    1.1753    3.3400 F   0  0  0  0  0  1           0  0  0
   -6.3932   -0.0226    5.8700 O   0  0  0  0  0  2           0  0  0
    1.6633   -2.9423    1.3061 O   0  0  0  0  0  2           0  0  0
    1.4517    0.0000    0.0000 N   0  0  0  0  0  3           0  0  0
    3.5366    0.7655   -0.0328 N   0  0  0  0  0  3           0  0  0
   -4.3658    0.0312    4.7356 N   0  0  0  0  0  3           0  0  0
    3.5479   -0.6046   -0.0559 C   0  0  0  0  0  4           0  0  0
    2.2661    1.1153    0.0000 C   0  0  0  0  0  4           0  0  0
    2.2641   -1.1156   -0.0350 C   0  0  0  0  0  4           0  0  0
   -3.3975   -0.0057    5.7573 C   0  0  0  0  0  4           0  0  0
   -2.0200    0.0032    5.4303 C   0  0  0  0  0  4           0  0  0
   -1.5198    0.0013    4.0509 C   0  0  0  0  0  4           0  0  0
   -0.5417    0.0000    1.3969 C   0  0  0  0  0  4           0  0  0
   -3.7950   -0.0306    7.1058 C   0  0  0  0  0  4           0  0  0
   -1.0855    0.0036    6.4864 C   0  0  0  0  0  4           0  0  0
   -1.2843    1.2059    3.3717 C   0  0  0  0  0  4           0  0  0
   -1.2592   -1.2042    3.3826 C   0  0  0  0  0  4           0  0  0
   -0.7992    1.2054    2.0608 C   0  0  0  0  0  4           0  0  0
   -0.7725   -1.2050    2.0722 C   0  0  0  0  0  4           0  0  0
   -2.8476   -0.0380    8.1287 C   0  0  0  0  0  4           0  0  0
   -1.4935   -0.0179    7.8199 C   0  0  0  0  0  4           0  0  0
   -6.3975    0.0780    3.4829 C   0  0  2  0  0  4           0  0  0
   -5.7399    0.0303    4.8310 C   0  0  0  0  0  4           0  0  0
    1.7757   -2.5111   -0.0435 C   0  0  0  0  0  4           0  0  0
    0.0000    0.0000    0.0000 C   0  0  0  0  0  4           0  0  0
    1.7755    2.5195    0.0391 C   0  0  0  0  0  4           0  0  0
    2.5143    3.3935   -0.9680 C   0  0  0  0  0  4           0  0  0
    2.3740    2.9434   -2.4227 C   0  0  0  0  0  4           0  0  0
    3.1244    3.8397   -3.3963 C   0  0  0  0  0  4           0  0  0
  1 10  1  0     0  0
  2 25  1  0     0  0
  3 25  1  0     0  0
  4 25  1  0     0  0
  5 26  2  0     0  0
  6 27  1  0     0  0
  7 11  1  0     0  0
  7 12  1  0     0  0
  7 28  1  0     0  0
  8 10  1  0     0  0
  8 11  2  0     0  0
  9 13  1  0     0  0
  9 26  1  0     0  0
 10 12  2  0     0  0
 11 29  1  0     0  0
 12 27  1  0     0  0
 13 14  1  0     0  0
 13 17  2  0     0  0
 14 15  1  0     0  0
 14 18  2  0     0  0
 15 19  2  0     0  0
 15 20  1  0     0  0
 16 21  2  0     0  0
 16 22  1  0     0  0
 16 28  1  0     0  0
 17 23  1  0     0  0
 18 24  1  0     0  0
 19 21  1  0     0  0
 20 22  2  0     0  0
 23 24  2  0     0  0
 25 26  1  0     0  0
 29 30  1  0     0  0
 30 31  1  0     0  0
 31 32  1  0     0  0
M  END
> <standard_type>
pIC50

> <# Confs.>
25

> <canonical_smiles>
ClC(N=C1CCCC)=C(CO)N1CC2=CC=C(C3=CC=CC=C3NC(C(F)(F)F)=O)C=C2

> <standard_relation>
=

> <Publication_ID>
nan

> <predicted_activity_value>
5.045757490560675

> <actual_activity_value>
5.200659450546418

> <Compound>
20

> <standard_units>
nM

> hash
13975603633165952417

$$$$
20_
XXILIB    08252103443D 0   0.00000     0.00000

 32 34  0     1  0            999 V2000
    5.0035   -1.4900   -0.1073 Cl  0  0  0  0  0  1           0  0  0
   -5.4916    0.1114    2.4723 F   0  0  0  0  0  1           0  0  0
   -7.1899   -1.0027    3.2670 F   0  0  0  0  0  1           0  0  0
   -7.1836    1.1753    3.3400 F   0  0  0  0  0  1           0  0  0
   -6.3932   -0.0226    5.8700 O   0  0  0  0  0  2           0  0  0
    1.6633   -2.9423    1.3061 O   0  0  0  0  0  2           0  0  0
    1.4517    0.0000    0.0000 N   0  0  0  0  0  3           0  0  0
    3.5366    0.7655   -0.0328 N   0  0  0  0  0  3           0  0  0
   -4.3658    0.0312    4.7356 N   0  0  0  0  0  3           0  0  0
    3.5479   -0.6046   -0.0559 C   0  0  0  0  0  4           0  0  0
    2.2661    1.1153    0.0000 C   0  0  0  0  0  4           0  0  0
    2.2641   -1.1156   -0.0350 C   0  0  0  0  0  4           0  0  0
   -3.3975   -0.0057    5.7573 C   0  0  0  0  0  4           0  0  0
   -2.0200    0.0032    5.4303 C   0  0  0  0  0  4           0  0  0
   -1.5198    0.0013    4.0509 C   0  0  0  0  0  4           0  0  0
   -0.5417    0.0000    1.3969 C   0  0  0  0  0  4           0  0  0
   -3.7950   -0.0306    7.1058 C   0  0  0  0  0  4           0  0  0
   -1.0855    0.0036    6.4864 C   0  0  0  0  0  4           0  0  0
   -1.2843    1.2059    3.3717 C   0  0  0  0  0  4           0  0  0
   -1.2592   -1.2042    3.3826 C   0  0  0  0  0  4           0  0  0
   -0.7992    1.2054    2.0608 C   0  0  0  0  0  4           0  0  0
   -0.7725   -1.2050    2.0722 C   0  0  0  0  0  4           0  0  0
   -2.8476   -0.0380    8.1287 C   0  0  0  0  0  4           0  0  0
   -1.4935   -0.0179    7.8199 C   0  0  0  0  0  4           0  0  0
   -6.3975    0.0780    3.4829 C   0  0  2  0  0  4           0  0  0
   -5.7399    0.0303    4.8310 C   0  0  0  0  0  4           0  0  0
    1.7757   -2.5111   -0.0435 C   0  0  0  0  0  4           0  0  0
    0.0000    0.0000    0.0000 C   0  0  0  0  0  4           0  0  0
    1.7755    2.5195    0.0391 C   0  0  0  0  0  4           0  0  0
    2.5143    3.3935   -0.9680 C   0  0  0  0  0  4           0  0  0
    2.0662    4.8554   -0.9893 C   0  0  0  0  0  4           0  0  0
    2.8259    5.6943   -2.0059 C   0  0  0  0  0  4           0  0  0
  1 10  1  0     0  0
  2 25  1  0     0  0
  3 25  1  0     0  0
  4 25  1  0     0  0
  5 26  2  0     0  0
  6 27  1  0     0  0
  7 11  1  0     0  0
  7 12  1  0     0  0
  7 28  1  0     0  0
  8 10  1  0     0  0
  8 11  2  0     0  0
  9 13  1  0     0  0
  9 26  1  0     0  0
 10 12  2  0     0  0
 11 29  1  0     0  0
 12 27  1  0     0  0
 13 14  1  0     0  0
 13 17  2  0     0  0
 14 15  1  0     0  0
 14 18  2  0     0  0
 15 19  2  0     0  0
 15 20  1  0     0  0
 16 21  2  0     0  0
 16 22  1  0     0  0
 16 28  1  0     0  0
 17 23  1  0     0  0
 18 24  1  0     0  0
 19 21  1  0     0  0
 20 22  2  0     0  0
 23 24  2  0     0  0
 25 26  1  0     0  0
 29 30  1  0     0  0
 30 31  1  0     0  0
 31 32  1  0     0  0
M  END
> <standard_type>
pIC50

> <# Confs.>
25

> <canonical_smiles>
ClC(N=C1CCCC)=C(CO)N1CC2=CC=C(C3=CC=CC=C3NC(C(F)(F)F)=O)C=C2

> <standard_relation>
=

> <Publication_ID>
nan

> <predicted_activity_value>
5.045757490560675

> <actual_activity_value>
5.200659450546418

> <Compound>
20

> <standard_units>
nM

> hash
13975603633165952417

$$$$
20_
XXILIB    08252103443D 0   0.00000     0.00000

 32 34  0     1  0            999 V2000
    5.0035    1.4900    0.1073 Cl  0  0  0  0  0  1           0  0  0
   -1.6552   -4.2262    3.9601 F   0  0  0  0  0  1           0  0  0
   -1.1064   -5.5223    5.6263 F   0  0  0  0  0  1           0  0  0
   -3.1608   -5.4899    4.9000 F   0  0  0  0  0  1           0  0  0
   -2.7935   -3.8383    7.2660 O   0  0  0  0  0  2           0  0  0
    1.6633    2.9423   -1.3061 O   0  0  0  0  0  2           0  0  0
    1.4517    0.0000   -0.0000 N   0  0  0  0  0  3           0  0  0
    3.5366   -0.7655    0.0328 N   0  0  0  0  0  3           0  0  0
   -2.1963   -2.3582    5.5769 N   0  0  0  0  0  3           0  0  0
    3.5479    0.6046    0.0559 C   0  0  0  0  0  4           0  0  0
    2.2661   -1.1153    0.0000 C   0  0  0  0  0  4           0  0  0
    2.2641    1.1156    0.0350 C   0  0  0  0  0  4           0  0  0
   -2.3796   -1.0860    6.1520 C   0  0  0  0  0  4           0  0  0
   -2.0976    0.0801    5.4001 C   0  0  0  0  0  4           0  0  0
   -1.5655    0.0477    4.0332 C   0  0  0  0  0  4           0  0  0
   -0.5417    0.0000    1.3969 C   0  0  0  0  0  4           0  0  0
   -2.8630   -0.9691    7.4672 C   0  0  0  0  0  4           0  0  0
   -2.3319    1.3332    6.0030 C   0  0  0  0  0  4           0  0  0
   -2.4289    0.0217    2.9279 C   0  0  0  0  0  4           0  0  0
   -0.1822    0.0490    3.8002 C   0  0  0  0  0  4           0  0  0
   -1.9230   -0.0000    1.6250 C   0  0  0  0  0  4           0  0  0
    0.3240    0.0290    2.4974 C   0  0  0  0  0  4           0  0  0
   -3.0771    0.2841    8.0397 C   0  0  0  0  0  4           0  0  0
   -2.8147    1.4349    7.3076 C   0  0  0  0  0  4           0  0  0
   -2.0832   -4.7054    5.1560 C   0  0  2  0  0  4           0  0  0
   -2.4072   -3.6049    6.1234 C   0  0  0  0  0  4           0  0  0
    1.7757    2.5111    0.0435 C   0  0  0  0  0  4           0  0  0
    0.0000    0.0000   -0.0000 C   0  0  0  0  0  4           0  0  0
    1.7755   -2.5195   -0.0391 C   0  0  0  0  0  4           0  0  0
    1.6292   -3.0164   -1.4728 C   0  0  0  0  0  4           0  0  0
    2.9253   -3.0050   -2.2843 C   0  0  0  0  0  4           0  0  0
    2.7385   -3.5072   -3.7081 C   0  0  0  0  0  4           0  0  0
  1 10  1  0     0  0
  2 25  1  0     0  0
  3 25  1  0     0  0
  4 25  1  0     0  0
  5 26  2  0     0  0
  6 27  1  0     0  0
  7 11  1  0     0  0
  7 12  1  0     0  0
  7 28  1  0     0  0
  8 10  1  0     0  0
  8 11  2  0     0  0
  9 13  1  0     0  0
  9 26  1  0     0  0
 10 12  2  0     0  0
 11 29  1  0     0  0
 12 27  1  0     0  0
 13 14  1  0     0  0
 13 17  2  0     0  0
 14 15  1  0     0  0
 14 18  2  0     0  0
 15 19  2  0     0  0
 15 20  1  0     0  0
 16 21  2  0     0  0
 16 22  1  0     0  0
 16 28  1  0     0  0
 17 23  1  0     0  0
 18 24  1  0     0  0
 19 21  1  0     0  0
 20 22  2  0     0  0
 23 24  2  0     0  0
 25 26  1  0     0  0
 29 30  1  0     0  0
 30 31  1  0     0  0
 31 32  1  0     0  0
M  END
> <standard_type>
pIC50

> <# Confs.>
25

> <canonical_smiles>
ClC(N=C1CCCC)=C(CO)N1CC2=CC=C(C3=CC=CC=C3NC(C(F)(F)F)=O)C=C2

> <standard_relation>
=

> <Publication_ID>
nan

> <predicted_activity_value>
5.045757490560675

> <actual_activity_value>
5.200659450546418

> <Compound>
20

> <standard_units>
nM

> hash
13975603633165952417

$$$$
20_
XXILIB    08252103443D 0   0.00000     0.00000

 32 34  0     1  0            999 V2000
    5.0035    1.4900    0.1073 Cl  0  0  0  0  0  1           0  0  0
   -1.3815    4.3158    3.8641 F   0  0  0  0  0  1           0  0  0
   -2.8911    5.6704    4.6661 F   0  0  0  0  0  1           0  0  0
   -0.8869    5.6411    5.5214 F   0  0  0  0  0  1           0  0  0
   -2.7830    4.0825    7.0823 O   0  0  0  0  0  2           0  0  0
    1.6633    2.9423   -1.3061 O   0  0  0  0  0  2           0  0  0
    1.4517    0.0000   -0.0000 N   0  0  0  0  0  3           0  0  0
    3.5366   -0.7655    0.0328 N   0  0  0  0  0  3           0  0  0
   -2.1054    2.5248    5.4965 N   0  0  0  0  0  3           0  0  0
    3.5479    0.6046    0.0559 C   0  0  0  0  0  4           0  0  0
    2.2661   -1.1153    0.0000 C   0  0  0  0  0  4           0  0  0
    2.2641    1.1156    0.0350 C   0  0  0  0  0  4           0  0  0
   -2.3793    1.2805    6.0960 C   0  0  0  0  0  4           0  0  0
   -2.0976    0.0801    5.4001 C   0  0  0  0  0  4           0  0  0
   -1.5655    0.0477    4.0332 C   0  0  0  0  0  4           0  0  0
   -0.5417   -0.0000    1.3969 C   0  0  0  0  0  4           0  0  0
   -2.9138    1.2255    7.3954 C   0  0  0  0  0  4           0  0  0
   -2.3525   -1.1432    6.0537 C   0  0  0  0  0  4           0  0  0
   -2.4289    0.0217    2.9279 C   0  0  0  0  0  4           0  0  0
   -0.1822    0.0490    3.8002 C   0  0  0  0  0  4           0  0  0
   -1.9230    0.0000    1.6250 C   0  0  0  0  0  4           0  0  0
    0.3240    0.0290    2.4974 C   0  0  0  0  0  4           0  0  0
   -3.1630    0.0005    8.0130 C   0  0  0  0  0  4           0  0  0
   -2.8800   -1.1835    7.3442 C   0  0  0  0  0  4           0  0  0
   -1.8666    4.8506    5.0137 C   0  0  2  0  0  4           0  0  0
   -2.2993    3.7962    5.9900 C   0  0  0  0  0  4           0  0  0
    1.7757    2.5111    0.0435 C   0  0  0  0  0  4           0  0  0
    0.0000    0.0000    0.0000 C   0  0  0  0  0  4           0  0  0
    1.7755   -2.5195   -0.0391 C   0  0  0  0  0  4           0  0  0
    1.6292   -3.0164   -1.4728 C   0  0  0  0  0  4           0  0  0
    2.9253   -3.0050   -2.2843 C   0  0  0  0  0  4           0  0  0
    2.7385   -3.5072   -3.7081 C   0  0  0  0  0  4           0  0  0
  1 10  1  0     0  0
  2 25  1  0     0  0
  3 25  1  0     0  0
  4 25  1  0     0  0
  5 26  2  0     0  0
  6 27  1  0     0  0
  7 11  1  0     0  0
  7 12  1  0     0  0
  7 28  1  0     0  0
  8 10  1  0     0  0
  8 11  2  0     0  0
  9 13  1  0     0  0
  9 26  1  0     0  0
 10 12  2  0     0  0
 11 29  1  0     0  0
 12 27  1  0     0  0
 13 14  1  0     0  0
 13 17  2  0     0  0
 14 15  1  0     0  0
 14 18  2  0     0  0
 15 19  2  0     0  0
 15 20  1  0     0  0
 16 21  2  0     0  0
 16 22  1  0     0  0
 16 28  1  0     0  0
 17 23  1  0     0  0
 18 24  1  0     0  0
 19 21  1  0     0  0
 20 22  2  0     0  0
 23 24  2  0     0  0
 25 26  1  0     0  0
 29 30  1  0     0  0
 30 31  1  0     0  0
 31 32  1  0     0  0
M  END
> <standard_type>
pIC50

> <# Confs.>
25

> <canonical_smiles>
ClC(N=C1CCCC)=C(CO)N1CC2=CC=C(C3=CC=CC=C3NC(C(F)(F)F)=O)C=C2

> <standard_relation>
=

> <Publication_ID>
nan

> <predicted_activity_value>
5.045757490560675

> <actual_activity_value>
5.200659450546418

> <Compound>
20

> <standard_units>
nM

> hash
13975603633165952417

$$$$
20_
XXILIB    08252103443D 0   0.00000     0.00000

 32 34  0     1  0            999 V2000
    5.0035    1.4900    0.1073 Cl  0  0  0  0  0  1           0  0  0
   -1.6552   -4.2262    3.9601 F   0  0  0  0  0  1           0  0  0
   -1.1064   -5.5223    5.6263 F   0  0  0  0  0  1           0  0  0
   -3.1608   -5.4899    4.9000 F   0  0  0  0  0  1           0  0  0
   -2.7935   -3.8383    7.2660 O   0  0  0  0  0  2           0  0  0
    1.6633    2.9423   -1.3061 O   0  0  0  0  0  2           0  0  0
    1.4517   -0.0000   -0.0000 N   0  0  0  0  0  3           0  0  0
    3.5366   -0.7655    0.0328 N   0  0  0  0  0  3           0  0  0
   -2.1963   -2.3582    5.5769 N   0  0  0  0  0  3           0  0  0
    3.5479    0.6046    0.0559 C   0  0  0  0  0  4           0  0  0
    2.2661   -1.1153   -0.0000 C   0  0  0  0  0  4           0  0  0
    2.2641    1.1156    0.0350 C   0  0  0  0  0  4           0  0  0
   -2.3796   -1.0860    6.1520 C   0  0  0  0  0  4           0  0  0
   -2.0976    0.0801    5.4001 C   0  0  0  0  0  4           0  0  0
   -1.5655    0.0477    4.0332 C   0  0  0  0  0  4           0  0  0
   -0.5417    0.0000    1.3969 C   0  0  0  0  0  4           0  0  0
   -2.8630   -0.9691    7.4672 C   0  0  0  0  0  4           0  0  0
   -2.3319    1.3332    6.0030 C   0  0  0  0  0  4           0  0  0
   -2.4289    0.0217    2.9279 C   0  0  0  0  0  4           0  0  0
   -0.1822    0.0490    3.8002 C   0  0  0  0  0  4           0  0  0
   -1.9230   -0.0000    1.6250 C   0  0  0  0  0  4           0  0  0
    0.3240    0.0290    2.4974 C   0  0  0  0  0  4           0  0  0
   -3.0771    0.2841    8.0397 C   0  0  0  0  0  4           0  0  0
   -2.8147    1.4349    7.3076 C   0  0  0  0  0  4           0  0  0
   -2.0832   -4.7054    5.1560 C   0  0  2  0  0  4           0  0  0
   -2.4072   -3.6049    6.1234 C   0  0  0  0  0  4           0  0  0
    1.7757    2.5111    0.0435 C   0  0  0  0  0  4           0  0  0
    0.0000    0.0000   -0.0000 C   0  0  0  0  0  4           0  0  0
    1.7755   -2.5195   -0.0391 C   0  0  0  0  0  4           0  0  0
    2.5143   -3.3935    0.9680 C   0  0  0  0  0  4           0  0  0
    2.3740   -2.9434    2.4227 C   0  0  0  0  0  4           0  0  0
    3.1244   -3.8397    3.3963 C   0  0  0  0  0  4           0  0  0
  1 10  1  0     0  0
  2 25  1  0     0  0
  3 25  1  0     0  0
  4 25  1  0     0  0
  5 26  2  0     0  0
  6 27  1  0     0  0
  7 11  1  0     0  0
  7 12  1  0     0  0
  7 28  1  0     0  0
  8 10  1  0     0  0
  8 11  2  0     0  0
  9 13  1  0     0  0
  9 26  1  0     0  0
 10 12  2  0     0  0
 11 29  1  0     0  0
 12 27  1  0     0  0
 13 14  1  0     0  0
 13 17  2  0     0  0
 14 15  1  0     0  0
 14 18  2  0     0  0
 15 19  2  0     0  0
 15 20  1  0     0  0
 16 21  2  0     0  0
 16 22  1  0     0  0
 16 28  1  0     0  0
 17 23  1  0     0  0
 18 24  1  0     0  0
 19 21  1  0     0  0
 20 22  2  0     0  0
 23 24  2  0     0  0
 25 26  1  0     0  0
 29 30  1  0     0  0
 30 31  1  0     0  0
 31 32  1  0     0  0
M  END
> <standard_type>
pIC50

> <# Confs.>
25

> <canonical_smiles>
ClC(N=C1CCCC)=C(CO)N1CC2=CC=C(C3=CC=CC=C3NC(C(F)(F)F)=O)C=C2

> <standard_relation>
=

> <Publication_ID>
nan

> <predicted_activity_value>
5.045757490560675

> <actual_activity_value>
5.200659450546418

> <Compound>
20

> <standard_units>
nM

> hash
13975603633165952417

$$$$
20_
XXILIB    08252103443D 0   0.00000     0.00000

 32 34  0     1  0            999 V2000
    5.0035    1.4900    0.1073 Cl  0  0  0  0  0  1           0  0  0
    1.3083    2.9096    5.1093 F   0  0  0  0  0  1           0  0  0
    0.9383    4.6138    6.4192 F   0  0  0  0  0  1           0  0  0
    2.3291    3.0509    7.0291 F   0  0  0  0  0  1           0  0  0
   -0.2991    2.7301    8.2333 O   0  0  0  0  0  2           0  0  0
    1.6633    2.9423   -1.3061 O   0  0  0  0  0  2           0  0  0
    1.4517    0.0000   -0.0000 N   0  0  0  0  0  3           0  0  0
    3.5366   -0.7655    0.0328 N   0  0  0  0  0  3           0  0  0
   -0.5918    1.6454    6.1991 N   0  0  0  0  0  3           0  0  0
    3.5479    0.6046    0.0559 C   0  0  0  0  0  4           0  0  0
    2.2661   -1.1153    0.0000 C   0  0  0  0  0  4           0  0  0
    2.2641    1.1156    0.0350 C   0  0  0  0  0  4           0  0  0
   -1.6728    0.7720    6.4261 C   0  0  0  0  0  4           0  0  0
   -2.1453   -0.0589    5.3817 C   0  0  0  0  0  4           0  0  0
   -1.5949   -0.0346    4.0218 C   0  0  0  0  0  4           0  0  0
   -0.5417    0.0000    1.3969 C   0  0  0  0  0  4           0  0  0
   -2.2728    0.7068    7.6961 C   0  0  0  0  0  4           0  0  0
   -3.2050   -0.9452    5.6644 C   0  0  0  0  0  4           0  0  0
   -0.5238   -0.8680    3.6667 C   0  0  0  0  0  4           0  0  0
   -2.1311    0.8168    3.0445 C   0  0  0  0  0  4           0  0  0
   -0.0045   -0.8523    2.3690 C   0  0  0  0  0  4           0  0  0
   -1.6131    0.8316    1.7462 C   0  0  0  0  0  4           0  0  0
   -3.3249   -0.1741    7.9436 C   0  0  0  0  0  4           0  0  0
   -3.7892   -1.0020    6.9296 C   0  0  0  0  0  4           0  0  0
    1.1431    3.2720    6.4071 C   0  0  2  0  0  4           0  0  0
    0.0176    2.5276    7.0638 C   0  0  0  0  0  4           0  0  0
    1.7757    2.5111    0.0435 C   0  0  0  0  0  4           0  0  0
    0.0000    0.0000    0.0000 C   0  0  0  0  0  4           0  0  0
    1.7755   -2.5195   -0.0391 C   0  0  0  0  0  4           0  0  0
    1.6292   -3.0164   -1.4728 C   0  0  0  0  0  4           0  0  0
    1.1280   -4.4556   -1.5981 C   0  0  0  0  0  4           0  0  0
    0.9953   -4.9142   -3.0426 C   0  0  0  0  0  4           0  0  0
  1 10  1  0     0  0
  2 25  1  0     0  0
  3 25  1  0     0  0
  4 25  1  0     0  0
  5 26  2  0     0  0
  6 27  1  0     0  0
  7 11  1  0     0  0
  7 12  1  0     0  0
  7 28  1  0     0  0
  8 10  1  0     0  0
  8 11  2  0     0  0
  9 13  1  0     0  0
  9 26  1  0     0  0
 10 12  2  0     0  0
 11 29  1  0     0  0
 12 27  1  0     0  0
 13 14  1  0     0  0
 13 17  2  0     0  0
 14 15  1  0     0  0
 14 18  2  0     0  0
 15 19  2  0     0  0
 15 20  1  0     0  0
 16 21  2  0     0  0
 16 22  1  0     0  0
 16 28  1  0     0  0
 17 23  1  0     0  0
 18 24  1  0     0  0
 19 21  1  0     0  0
 20 22  2  0     0  0
 23 24  2  0     0  0
 25 26  1  0     0  0
 29 30  1  0     0  0
 30 31  1  0     0  0
 31 32  1  0     0  0
M  END
> <standard_type>
pIC50

> <# Confs.>
25

> <canonical_smiles>
ClC(N=C1CCCC)=C(CO)N1CC2=CC=C(C3=CC=CC=C3NC(C(F)(F)F)=O)C=C2

> <standard_relation>
=

> <Publication_ID>
nan

> <predicted_activity_value>
5.045757490560675

> <actual_activity_value>
5.200659450546418

> <Compound>
20

> <standard_units>
nM

> hash
13975603633165952417

$$$$
20_
XXILIB    08252103443D 0   0.00000     0.00000

 32 34  0     1  0            999 V2000
    5.0035    1.4900    0.1073 Cl  0  0  0  0  0  1           0  0  0
   -1.6552   -4.2262    3.9601 F   0  0  0  0  0  1           0  0  0
   -1.1064   -5.5223    5.6263 F   0  0  0  0  0  1           0  0  0
   -3.1608   -5.4899    4.9000 F   0  0  0  0  0  1           0  0  0
   -2.7935   -3.8383    7.2660 O   0  0  0  0  0  2           0  0  0
    1.6633    2.9423   -1.3061 O   0  0  0  0  0  2           0  0  0
    1.4517   -0.0000   -0.0000 N   0  0  0  0  0  3           0  0  0
    3.5366   -0.7655    0.0328 N   0  0  0  0  0  3           0  0  0
   -2.1963   -2.3582    5.5769 N   0  0  0  0  0  3           0  0  0
    3.5479    0.6046    0.0559 C   0  0  0  0  0  4           0  0  0
    2.2661   -1.1153    0.0000 C   0  0  0  0  0  4           0  0  0
    2.2641    1.1156    0.0350 C   0  0  0  0  0  4           0  0  0
   -2.3796   -1.0860    6.1520 C   0  0  0  0  0  4           0  0  0
   -2.0976    0.0801    5.4001 C   0  0  0  0  0  4           0  0  0
   -1.5655    0.0477    4.0332 C   0  0  0  0  0  4           0  0  0
   -0.5417    0.0000    1.3969 C   0  0  0  0  0  4           0  0  0
   -2.8630   -0.9691    7.4672 C   0  0  0  0  0  4           0  0  0
   -2.3319    1.3332    6.0030 C   0  0  0  0  0  4           0  0  0
   -2.4289    0.0217    2.9279 C   0  0  0  0  0  4           0  0  0
   -0.1822    0.0490    3.8002 C   0  0  0  0  0  4           0  0  0
   -1.9230   -0.0000    1.6250 C   0  0  0  0  0  4           0  0  0
    0.3240    0.0290    2.4974 C   0  0  0  0  0  4           0  0  0
   -3.0771    0.2841    8.0397 C   0  0  0  0  0  4           0  0  0
   -2.8147    1.4349    7.3076 C   0  0  0  0  0  4           0  0  0
   -2.0832   -4.7054    5.1560 C   0  0  2  0  0  4           0  0  0
   -2.4072   -3.6049    6.1234 C   0  0  0  0  0  4           0  0  0
    1.7757    2.5111    0.0435 C   0  0  0  0  0  4           0  0  0
    0.0000    0.0000   -0.0000 C   0  0  0  0  0  4           0  0  0
    1.7755   -2.5195   -0.0391 C   0  0  0  0  0  4           0  0  0
    2.9326   -3.5119   -0.0279 C   0  0  0  0  0  4           0  0  0
    2.5097   -4.9809   -0.0665 C   0  0  0  0  0  4           0  0  0
    3.6912   -5.9392   -0.0541 C   0  0  0  0  0  4           0  0  0
  1 10  1  0     0  0
  2 25  1  0     0  0
  3 25  1  0     0  0
  4 25  1  0     0  0
  5 26  2  0     0  0
  6 27  1  0     0  0
  7 11  1  0     0  0
  7 12  1  0     0  0
  7 28  1  0     0  0
  8 10  1  0     0  0
  8 11  2  0     0  0
  9 13  1  0     0  0
  9 26  1  0     0  0
 10 12  2  0     0  0
 11 29  1  0     0  0
 12 27  1  0     0  0
 13 14  1  0     0  0
 13 17  2  0     0  0
 14 15  1  0     0  0
 14 18  2  0     0  0
 15 19  2  0     0  0
 15 20  1  0     0  0
 16 21  2  0     0  0
 16 22  1  0     0  0
 16 28  1  0     0  0
 17 23  1  0     0  0
 18 24  1  0     0  0
 19 21  1  0     0  0
 20 22  2  0     0  0
 23 24  2  0     0  0
 25 26  1  0     0  0
 29 30  1  0     0  0
 30 31  1  0     0  0
 31 32  1  0     0  0
M  END
> <standard_type>
pIC50

> <# Confs.>
25

> <canonical_smiles>
ClC(N=C1CCCC)=C(CO)N1CC2=CC=C(C3=CC=CC=C3NC(C(F)(F)F)=O)C=C2

> <standard_relation>
=

> <Publication_ID>
nan

> <predicted_activity_value>
5.045757490560675

> <actual_activity_value>
5.200659450546418

> <Compound>
20

> <standard_units>
nM

> hash
13975603633165952417

$$$$
20_
XXILIB    08252103443D 0   0.00000     0.00000

 32 34  0     1  0            999 V2000
    5.0035    1.4900    0.1073 Cl  0  0  0  0  0  1           0  0  0
   -1.3815    4.3158    3.8641 F   0  0  0  0  0  1           0  0  0
   -2.8911    5.6704    4.6661 F   0  0  0  0  0  1           0  0  0
   -0.8869    5.6411    5.5214 F   0  0  0  0  0  1           0  0  0
   -2.7830    4.0825    7.0823 O   0  0  0  0  0  2           0  0  0
    1.6633    2.9423   -1.3061 O   0  0  0  0  0  2           0  0  0
    1.4517   -0.0000   -0.0000 N   0  0  0  0  0  3           0  0  0
    3.5366   -0.7655    0.0328 N   0  0  0  0  0  3           0  0  0
   -2.1054    2.5248    5.4965 N   0  0  0  0  0  3           0  0  0
    3.5479    0.6046    0.0559 C   0  0  0  0  0  4           0  0  0
    2.2661   -1.1153    0.0000 C   0  0  0  0  0  4           0  0  0
    2.2641    1.1156    0.0350 C   0  0  0  0  0  4           0  0  0
   -2.3793    1.2805    6.0960 C   0  0  0  0  0  4           0  0  0
   -2.0976    0.0801    5.4001 C   0  0  0  0  0  4           0  0  0
   -1.5655    0.0477    4.0332 C   0  0  0  0  0  4           0  0  0
   -0.5417   -0.0000    1.3969 C   0  0  0  0  0  4           0  0  0
   -2.9138    1.2255    7.3954 C   0  0  0  0  0  4           0  0  0
   -2.3525   -1.1432    6.0537 C   0  0  0  0  0  4           0  0  0
   -2.4289    0.0217    2.9279 C   0  0  0  0  0  4           0  0  0
   -0.1822    0.0490    3.8002 C   0  0  0  0  0  4           0  0  0
   -1.9230    0.0000    1.6250 C   0  0  0  0  0  4           0  0  0
    0.3240    0.0290    2.4974 C   0  0  0  0  0  4           0  0  0
   -3.1630    0.0005    8.0130 C   0  0  0  0  0  4           0  0  0
   -2.8800   -1.1835    7.3442 C   0  0  0  0  0  4           0  0  0
   -1.8666    4.8506    5.0137 C   0  0  2  0  0  4           0  0  0
   -2.2993    3.7962    5.9900 C   0  0  0  0  0  4           0  0  0
    1.7757    2.5111    0.0435 C   0  0  0  0  0  4           0  0  0
    0.0000    0.0000    0.0000 C   0  0  0  0  0  4           0  0  0
    1.7755   -2.5195   -0.0391 C   0  0  0  0  0  4           0  0  0
    2.9326   -3.5119   -0.0279 C   0  0  0  0  0  4           0  0  0
    2.5097   -4.9809   -0.0665 C   0  0  0  0  0  4           0  0  0
    3.6912   -5.9392   -0.0541 C   0  0  0  0  0  4           0  0  0
  1 10  1  0     0  0
  2 25  1  0     0  0
  3 25  1  0     0  0
  4 25  1  0     0  0
  5 26  2  0     0  0
  6 27  1  0     0  0
  7 11  1  0     0  0
  7 12  1  0     0  0
  7 28  1  0     0  0
  8 10  1  0     0  0
  8 11  2  0     0  0
  9 13  1  0     0  0
  9 26  1  0     0  0
 10 12  2  0     0  0
 11 29  1  0     0  0
 12 27  1  0     0  0
 13 14  1  0     0  0
 13 17  2  0     0  0
 14 15  1  0     0  0
 14 18  2  0     0  0
 15 19  2  0     0  0
 15 20  1  0     0  0
 16 21  2  0     0  0
 16 22  1  0     0  0
 16 28  1  0     0  0
 17 23  1  0     0  0
 18 24  1  0     0  0
 19 21  1  0     0  0
 20 22  2  0     0  0
 23 24  2  0     0  0
 25 26  1  0     0  0
 29 30  1  0     0  0
 30 31  1  0     0  0
 31 32  1  0     0  0
M  END
> <standard_type>
pIC50

> <# Confs.>
25

> <canonical_smiles>
ClC(N=C1CCCC)=C(CO)N1CC2=CC=C(C3=CC=CC=C3NC(C(F)(F)F)=O)C=C2

> <standard_relation>
=

> <Publication_ID>
nan

> <predicted_activity_value>
5.045757490560675

> <actual_activity_value>
5.200659450546418

> <Compound>
20

> <standard_units>
nM

> hash
13975603633165952417

$$$$
20_
XXILIB    08252103443D 0   0.00000     0.00000

 32 34  0     1  0            999 V2000
    5.0035    1.4900    0.1073 Cl  0  0  0  0  0  1           0  0  0
   -1.3815    4.3158    3.8641 F   0  0  0  0  0  1           0  0  0
   -2.8911    5.6704    4.6661 F   0  0  0  0  0  1           0  0  0
   -0.8869    5.6411    5.5214 F   0  0  0  0  0  1           0  0  0
   -2.7830    4.0825    7.0823 O   0  0  0  0  0  2           0  0  0
    1.6633    2.9423   -1.3061 O   0  0  0  0  0  2           0  0  0
    1.4517   -0.0000   -0.0000 N   0  0  0  0  0  3           0  0  0
    3.5366   -0.7655    0.0328 N   0  0  0  0  0  3           0  0  0
   -2.1054    2.5248    5.4965 N   0  0  0  0  0  3           0  0  0
    3.5479    0.6046    0.0559 C   0  0  0  0  0  4           0  0  0
    2.2661   -1.1153   -0.0000 C   0  0  0  0  0  4           0  0  0
    2.2641    1.1156    0.0350 C   0  0  0  0  0  4           0  0  0
   -2.3793    1.2805    6.0960 C   0  0  0  0  0  4           0  0  0
   -2.0976    0.0801    5.4001 C   0  0  0  0  0  4           0  0  0
   -1.5655    0.0477    4.0332 C   0  0  0  0  0  4           0  0  0
   -0.5417   -0.0000    1.3969 C   0  0  0  0  0  4           0  0  0
   -2.9138    1.2255    7.3954 C   0  0  0  0  0  4           0  0  0
   -2.3525   -1.1432    6.0537 C   0  0  0  0  0  4           0  0  0
   -2.4289    0.0217    2.9279 C   0  0  0  0  0  4           0  0  0
   -0.1822    0.0490    3.8002 C   0  0  0  0  0  4           0  0  0
   -1.9230    0.0000    1.6250 C   0  0  0  0  0  4           0  0  0
    0.3240    0.0290    2.4974 C   0  0  0  0  0  4           0  0  0
   -3.1630    0.0005    8.0130 C   0  0  0  0  0  4           0  0  0
   -2.8800   -1.1835    7.3442 C   0  0  0  0  0  4           0  0  0
   -1.8666    4.8506    5.0137 C   0  0  2  0  0  4           0  0  0
   -2.2993    3.7962    5.9900 C   0  0  0  0  0  4           0  0  0
    1.7757    2.5111    0.0435 C   0  0  0  0  0  4           0  0  0
    0.0000    0.0000    0.0000 C   0  0  0  0  0  4           0  0  0
    1.7755   -2.5195   -0.0391 C   0  0  0  0  0  4           0  0  0
    2.5143   -3.3935    0.9680 C   0  0  0  0  0  4           0  0  0
    2.3740   -2.9434    2.4227 C   0  0  0  0  0  4           0  0  0
    3.1244   -3.8397    3.3963 C   0  0  0  0  0  4           0  0  0
  1 10  1  0     0  0
  2 25  1  0     0  0
  3 25  1  0     0  0
  4 25  1  0     0  0
  5 26  2  0     0  0
  6 27  1  0     0  0
  7 11  1  0     0  0
  7 12  1  0     0  0
  7 28  1  0     0  0
  8 10  1  0     0  0
  8 11  2  0     0  0
  9 13  1  0     0  0
  9 26  1  0     0  0
 10 12  2  0     0  0
 11 29  1  0     0  0
 12 27  1  0     0  0
 13 14  1  0     0  0
 13 17  2  0     0  0
 14 15  1  0     0  0
 14 18  2  0     0  0
 15 19  2  0     0  0
 15 20  1  0     0  0
 16 21  2  0     0  0
 16 22  1  0     0  0
 16 28  1  0     0  0
 17 23  1  0     0  0
 18 24  1  0     0  0
 19 21  1  0     0  0
 20 22  2  0     0  0
 23 24  2  0     0  0
 25 26  1  0     0  0
 29 30  1  0     0  0
 30 31  1  0     0  0
 31 32  1  0     0  0
M  END
> <standard_type>
pIC50

> <# Confs.>
25

> <canonical_smiles>
ClC(N=C1CCCC)=C(CO)N1CC2=CC=C(C3=CC=CC=C3NC(C(F)(F)F)=O)C=C2

> <standard_relation>
=

> <Publication_ID>
nan

> <predicted_activity_value>
5.045757490560675

> <actual_activity_value>
5.200659450546418

> <Compound>
20

> <standard_units>
nM

> hash
13975603633165952417

$$$$
20_
XXILIB    08252103443D 0   0.00000     0.00000

 32 34  0     1  0            999 V2000
    5.0035   -1.4900   -0.1073 Cl  0  0  0  0  0  1           0  0  0
    2.0553    2.0416    5.2062 F   0  0  0  0  0  1           0  0  0
    2.1593    3.6725    6.6506 F   0  0  0  0  0  1           0  0  0
    3.1335    1.7711    7.0802 F   0  0  0  0  0  1           0  0  0
    0.5437    2.0109    8.3825 O   0  0  0  0  0  2           0  0  0
    1.6633   -2.9423    1.3061 O   0  0  0  0  0  2           0  0  0
    1.4517    0.0000    0.0000 N   0  0  0  0  0  3           0  0  0
    3.5366    0.7655   -0.0328 N   0  0  0  0  0  3           0  0  0
   -0.0681    1.2003    6.2923 N   0  0  0  0  0  3           0  0  0
    3.5479   -0.6046   -0.0559 C   0  0  0  0  0  4           0  0  0
    2.2661    1.1153    0.0000 C   0  0  0  0  0  4           0  0  0
    2.2641   -1.1156   -0.0350 C   0  0  0  0  0  4           0  0  0
   -1.3257    0.6046    6.5077 C   0  0  0  0  0  4           0  0  0
   -2.0200    0.0032    5.4303 C   0  0  0  0  0  4           0  0  0
   -1.5198    0.0013    4.0509 C   0  0  0  0  0  4           0  0  0
   -0.5417   -0.0000    1.3969 C   0  0  0  0  0  4           0  0  0
   -1.8865    0.5866    7.7969 C   0  0  0  0  0  4           0  0  0
   -3.2587   -0.6147    5.6992 C   0  0  0  0  0  4           0  0  0
   -1.2843    1.2059    3.3717 C   0  0  0  0  0  4           0  0  0
   -1.2592   -1.2042    3.3826 C   0  0  0  0  0  4           0  0  0
   -0.7992    1.2054    2.0608 C   0  0  0  0  0  4           0  0  0
   -0.7725   -1.2050    2.0722 C   0  0  0  0  0  4           0  0  0
   -3.1175   -0.0251    8.0308 C   0  0  0  0  0  4           0  0  0
   -3.8022   -0.6282    6.9836 C   0  0  0  0  0  4           0  0  0
    2.0228    2.3272    6.5330 C   0  0  2  0  0  4           0  0  0
    0.7665    1.8322    7.1877 C   0  0  0  0  0  4           0  0  0
    1.7757   -2.5111   -0.0435 C   0  0  0  0  0  4           0  0  0
    0.0000    0.0000    0.0000 C   0  0  0  0  0  4           0  0  0
    1.7755    2.5195    0.0391 C   0  0  0  0  0  4           0  0  0
    2.5143    3.3935   -0.9680 C   0  0  0  0  0  4           0  0  0
    2.3740    2.9434   -2.4227 C   0  0  0  0  0  4           0  0  0
    3.1244    3.8397   -3.3963 C   0  0  0  0  0  4           0  0  0
  1 10  1  0     0  0
  2 25  1  0     0  0
  3 25  1  0     0  0
  4 25  1  0     0  0
  5 26  2  0     0  0
  6 27  1  0     0  0
  7 11  1  0     0  0
  7 12  1  0     0  0
  7 28  1  0     0  0
  8 10  1  0     0  0
  8 11  2  0     0  0
  9 13  1  0     0  0
  9 26  1  0     0  0
 10 12  2  0     0  0
 11 29  1  0     0  0
 12 27  1  0     0  0
 13 14  1  0     0  0
 13 17  2  0     0  0
 14 15  1  0     0  0
 14 18  2  0     0  0
 15 19  2  0     0  0
 15 20  1  0     0  0
 16 21  2  0     0  0
 16 22  1  0     0  0
 16 28  1  0     0  0
 17 23  1  0     0  0
 18 24  1  0     0  0
 19 21  1  0     0  0
 20 22  2  0     0  0
 23 24  2  0     0  0
 25 26  1  0     0  0
 29 30  1  0     0  0
 30 31  1  0     0  0
 31 32  1  0     0  0
M  END
> <standard_type>
pIC50

> <# Confs.>
25

> <canonical_smiles>
ClC(N=C1CCCC)=C(CO)N1CC2=CC=C(C3=CC=CC=C3NC(C(F)(F)F)=O)C=C2

> <standard_relation>
=

> <Publication_ID>
nan

> <predicted_activity_value>
5.045757490560675

> <actual_activity_value>
5.200659450546418

> <Compound>
20

> <standard_units>
nM

> hash
13975603633165952417

$$$$
20_
XXILIB    08252103443D 0   0.00000     0.00000

 32 34  0     1  0            999 V2000
    5.0035    1.4900    0.1073 Cl  0  0  0  0  0  1           0  0  0
   -4.4005   -2.9746    2.6934 F   0  0  0  0  0  1           0  0  0
   -5.0244   -4.7226    3.8388 F   0  0  0  0  0  1           0  0  0
   -6.4672   -3.1620    3.3573 F   0  0  0  0  0  1           0  0  0
   -5.4203   -2.9109    6.0595 O   0  0  0  0  0  2           0  0  0
    1.6633    2.9423   -1.3061 O   0  0  0  0  0  2           0  0  0
    1.4517    0.0000   -0.0000 N   0  0  0  0  0  3           0  0  0
    3.5366   -0.7655    0.0328 N   0  0  0  0  0  3           0  0  0
   -3.8088   -1.7680    4.8359 N   0  0  0  0  0  3           0  0  0
    3.5479    0.6046    0.0559 C   0  0  0  0  0  4           0  0  0
    2.2661   -1.1153    0.0000 C   0  0  0  0  0  4           0  0  0
    2.2641    1.1156    0.0350 C   0  0  0  0  0  4           0  0  0
   -3.2009   -0.9155    5.7774 C   0  0  0  0  0  4           0  0  0
   -2.1453   -0.0589    5.3817 C   0  0  0  0  0  4           0  0  0
   -1.5949   -0.0346    4.0218 C   0  0  0  0  0  4           0  0  0
   -0.5417    0.0000    1.3969 C   0  0  0  0  0  4           0  0  0
   -3.6538   -0.8968    7.1085 C   0  0  0  0  0  4           0  0  0
   -1.5916    0.8051    6.3488 C   0  0  0  0  0  4           0  0  0
   -0.5238   -0.8680    3.6667 C   0  0  0  0  0  4           0  0  0
   -2.1311    0.8168    3.0445 C   0  0  0  0  0  4           0  0  0
   -0.0045   -0.8523    2.3690 C   0  0  0  0  0  4           0  0  0
   -1.6131    0.8316    1.7462 C   0  0  0  0  0  4           0  0  0
   -3.0809   -0.0370    8.0448 C   0  0  0  0  0  4           0  0  0
   -2.0524    0.8158    7.6651 C   0  0  0  0  0  4           0  0  0
   -5.1798   -3.3786    3.7289 C   0  0  2  0  0  4           0  0  0
   -4.8371   -2.6687    5.0058 C   0  0  0  0  0  4           0  0  0
    1.7757    2.5111    0.0435 C   0  0  0  0  0  4           0  0  0
    0.0000    0.0000   -0.0000 C   0  0  0  0  0  4           0  0  0
    1.7755   -2.5195   -0.0391 C   0  0  0  0  0  4           0  0  0
    1.6292   -3.0164   -1.4728 C   0  0  0  0  0  4           0  0  0
    1.1280   -4.4556   -1.5981 C   0  0  0  0  0  4           0  0  0
    0.9953   -4.9142   -3.0426 C   0  0  0  0  0  4           0  0  0
  1 10  1  0     0  0
  2 25  1  0     0  0
  3 25  1  0     0  0
  4 25  1  0     0  0
  5 26  2  0     0  0
  6 27  1  0     0  0
  7 11  1  0     0  0
  7 12  1  0     0  0
  7 28  1  0     0  0
  8 10  1  0     0  0
  8 11  2  0     0  0
  9 13  1  0     0  0
  9 26  1  0     0  0
 10 12  2  0     0  0
 11 29  1  0     0  0
 12 27  1  0     0  0
 13 14  1  0     0  0
 13 17  2  0     0  0
 14 15  1  0     0  0
 14 18  2  0     0  0
 15 19  2  0     0  0
 15 20  1  0     0  0
 16 21  2  0     0  0
 16 22  1  0     0  0
 16 28  1  0     0  0
 17 23  1  0     0  0
 18 24  1  0     0  0
 19 21  1  0     0  0
 20 22  2  0     0  0
 23 24  2  0     0  0
 25 26  1  0     0  0
 29 30  1  0     0  0
 30 31  1  0     0  0
 31 32  1  0     0  0
M  END
> <standard_type>
pIC50

> <# Confs.>
25

> <canonical_smiles>
ClC(N=C1CCCC)=C(CO)N1CC2=CC=C(C3=CC=CC=C3NC(C(F)(F)F)=O)C=C2

> <standard_relation>
=

> <Publication_ID>
nan

> <predicted_activity_value>
5.045757490560675

> <actual_activity_value>
5.200659450546418

> <Compound>
20

> <standard_units>
nM

> hash
13975603633165952417

$$$$
20_
XXILIB    08252103443D 0   0.00000     0.00000

 32 34  0     1  0            999 V2000
    5.0035   -1.4900   -0.1073 Cl  0  0  0  0  0  1           0  0  0
    2.0553    2.0416    5.2062 F   0  0  0  0  0  1           0  0  0
    2.1593    3.6725    6.6506 F   0  0  0  0  0  1           0  0  0
    3.1335    1.7711    7.0802 F   0  0  0  0  0  1           0  0  0
    0.5437    2.0109    8.3825 O   0  0  0  0  0  2           0  0  0
    1.6633   -2.9423    1.3061 O   0  0  0  0  0  2           0  0  0
    1.4517    0.0000    0.0000 N   0  0  0  0  0  3           0  0  0
    3.5366    0.7655   -0.0328 N   0  0  0  0  0  3           0  0  0
   -0.0681    1.2003    6.2923 N   0  0  0  0  0  3           0  0  0
    3.5479   -0.6046   -0.0559 C   0  0  0  0  0  4           0  0  0
    2.2661    1.1153    0.0000 C   0  0  0  0  0  4           0  0  0
    2.2641   -1.1156   -0.0350 C   0  0  0  0  0  4           0  0  0
   -1.3257    0.6046    6.5077 C   0  0  0  0  0  4           0  0  0
   -2.0200    0.0032    5.4303 C   0  0  0  0  0  4           0  0  0
   -1.5198    0.0013    4.0509 C   0  0  0  0  0  4           0  0  0
   -0.5417   -0.0000    1.3969 C   0  0  0  0  0  4           0  0  0
   -1.8865    0.5866    7.7969 C   0  0  0  0  0  4           0  0  0
   -3.2587   -0.6147    5.6992 C   0  0  0  0  0  4           0  0  0
   -1.2843    1.2059    3.3717 C   0  0  0  0  0  4           0  0  0
   -1.2592   -1.2042    3.3826 C   0  0  0  0  0  4           0  0  0
   -0.7992    1.2054    2.0608 C   0  0  0  0  0  4           0  0  0
   -0.7725   -1.2050    2.0722 C   0  0  0  0  0  4           0  0  0
   -3.1175   -0.0251    8.0308 C   0  0  0  0  0  4           0  0  0
   -3.8022   -0.6282    6.9836 C   0  0  0  0  0  4           0  0  0
    2.0228    2.3272    6.5330 C   0  0  2  0  0  4           0  0  0
    0.7665    1.8322    7.1877 C   0  0  0  0  0  4           0  0  0
    1.7757   -2.5111   -0.0435 C   0  0  0  0  0  4           0  0  0
    0.0000    0.0000    0.0000 C   0  0  0  0  0  4           0  0  0
    1.7755    2.5195    0.0391 C   0  0  0  0  0  4           0  0  0
    2.5143    3.3935   -0.9680 C   0  0  0  0  0  4           0  0  0
    2.0662    4.8554   -0.9893 C   0  0  0  0  0  4           0  0  0
    2.8259    5.6943   -2.0059 C   0  0  0  0  0  4           0  0  0
  1 10  1  0     0  0
  2 25  1  0     0  0
  3 25  1  0     0  0
  4 25  1  0     0  0
  5 26  2  0     0  0
  6 27  1  0     0  0
  7 11  1  0     0  0
  7 12  1  0     0  0
  7 28  1  0     0  0
  8 10  1  0     0  0
  8 11  2  0     0  0
  9 13  1  0     0  0
  9 26  1  0     0  0
 10 12  2  0     0  0
 11 29  1  0     0  0
 12 27  1  0     0  0
 13 14  1  0     0  0
 13 17  2  0     0  0
 14 15  1  0     0  0
 14 18  2  0     0  0
 15 19  2  0     0  0
 15 20  1  0     0  0
 16 21  2  0     0  0
 16 22  1  0     0  0
 16 28  1  0     0  0
 17 23  1  0     0  0
 18 24  1  0     0  0
 19 21  1  0     0  0
 20 22  2  0     0  0
 23 24  2  0     0  0
 25 26  1  0     0  0
 29 30  1  0     0  0
 30 31  1  0     0  0
 31 32  1  0     0  0
M  END
> <standard_type>
pIC50

> <# Confs.>
25

> <canonical_smiles>
ClC(N=C1CCCC)=C(CO)N1CC2=CC=C(C3=CC=CC=C3NC(C(F)(F)F)=O)C=C2

> <standard_relation>
=

> <Publication_ID>
nan

> <predicted_activity_value>
5.045757490560675

> <actual_activity_value>
5.200659450546418

> <Compound>
20

> <standard_units>
nM

> hash
13975603633165952417

$$$$
20_
XXILIB    08252103443D 0   0.00000     0.00000

 32 34  0     1  0            999 V2000
    5.0035    1.4900    0.1073 Cl  0  0  0  0  0  1           0  0  0
   -3.3898    3.7987    3.0945 F   0  0  0  0  0  1           0  0  0
   -5.3837    4.4179    3.7254 F   0  0  0  0  0  1           0  0  0
   -3.6284    5.4814    4.4579 F   0  0  0  0  0  1           0  0  0
   -4.6296    3.5377    6.3763 O   0  0  0  0  0  2           0  0  0
    1.6633    2.9423   -1.3061 O   0  0  0  0  0  2           0  0  0
    1.4517    0.0000   -0.0000 N   0  0  0  0  0  3           0  0  0
    3.5366   -0.7655    0.0328 N   0  0  0  0  0  3           0  0  0
   -3.2492    2.2116    5.0586 N   0  0  0  0  0  3           0  0  0
    3.5479    0.6046    0.0559 C   0  0  0  0  0  4           0  0  0
    2.2661   -1.1153    0.0000 C   0  0  0  0  0  4           0  0  0
    2.2641    1.1156    0.0350 C   0  0  0  0  0  4           0  0  0
   -2.9308    1.1170    5.8852 C   0  0  0  0  0  4           0  0  0
   -2.0976    0.0801    5.4001 C   0  0  0  0  0  4           0  0  0
   -1.5655    0.0477    4.0332 C   0  0  0  0  0  4           0  0  0
   -0.5417   -0.0000    1.3969 C   0  0  0  0  0  4           0  0  0
   -3.4219    1.0602    7.2015 C   0  0  0  0  0  4           0  0  0
   -1.7741   -0.9776    6.2750 C   0  0  0  0  0  4           0  0  0
   -2.4289    0.0217    2.9279 C   0  0  0  0  0  4           0  0  0
   -0.1822    0.0490    3.8002 C   0  0  0  0  0  4           0  0  0
   -1.9230   -0.0000    1.6250 C   0  0  0  0  0  4           0  0  0
    0.3240    0.0290    2.4974 C   0  0  0  0  0  4           0  0  0
   -3.0914   -0.0029    8.0410 C   0  0  0  0  0  4           0  0  0
   -2.2656   -1.0200    7.5795 C   0  0  0  0  0  4           0  0  0
   -4.1076    4.2480    4.1556 C   0  0  2  0  0  4           0  0  0
   -4.0310    3.3134    5.3272 C   0  0  0  0  0  4           0  0  0
    1.7757    2.5111    0.0435 C   0  0  0  0  0  4           0  0  0
    0.0000    0.0000    0.0000 C   0  0  0  0  0  4           0  0  0
    1.7755   -2.5195   -0.0391 C   0  0  0  0  0  4           0  0  0
    1.6292   -3.0164   -1.4728 C   0  0  0  0  0  4           0  0  0
    1.1280   -4.4556   -1.5981 C   0  0  0  0  0  4           0  0  0
    0.9953   -4.9142   -3.0426 C   0  0  0  0  0  4           0  0  0
  1 10  1  0     0  0
  2 25  1  0     0  0
  3 25  1  0     0  0
  4 25  1  0     0  0
  5 26  2  0     0  0
  6 27  1  0     0  0
  7 11  1  0     0  0
  7 12  1  0     0  0
  7 28  1  0     0  0
  8 10  1  0     0  0
  8 11  2  0     0  0
  9 13  1  0     0  0
  9 26  1  0     0  0
 10 12  2  0     0  0
 11 29  1  0     0  0
 12 27  1  0     0  0
 13 14  1  0     0  0
 13 17  2  0     0  0
 14 15  1  0     0  0
 14 18  2  0     0  0
 15 19  2  0     0  0
 15 20  1  0     0  0
 16 21  2  0     0  0
 16 22  1  0     0  0
 16 28  1  0     0  0
 17 23  1  0     0  0
 18 24  1  0     0  0
 19 21  1  0     0  0
 20 22  2  0     0  0
 23 24  2  0     0  0
 25 26  1  0     0  0
 29 30  1  0     0  0
 30 31  1  0     0  0
 31 32  1  0     0  0
M  END
> <standard_type>
pIC50

> <# Confs.>
25

> <canonical_smiles>
ClC(N=C1CCCC)=C(CO)N1CC2=CC=C(C3=CC=CC=C3NC(C(F)(F)F)=O)C=C2

> <standard_relation>
=

> <Publication_ID>
nan

> <predicted_activity_value>
5.045757490560675

> <actual_activity_value>
5.200659450546418

> <Compound>
20

> <standard_units>
nM

> hash
13975603633165952417

$$$$
20_
XXILIB    08252103443D 0   0.00000     0.00000

 32 34  0     1  0            999 V2000
    5.0035    1.4900    0.1073 Cl  0  0  0  0  0  1           0  0  0
    1.3083    2.9096    5.1093 F   0  0  0  0  0  1           0  0  0
    0.9383    4.6138    6.4192 F   0  0  0  0  0  1           0  0  0
    2.3291    3.0509    7.0291 F   0  0  0  0  0  1           0  0  0
   -0.2991    2.7301    8.2333 O   0  0  0  0  0  2           0  0  0
    1.6633    2.9423   -1.3061 O   0  0  0  0  0  2           0  0  0
    1.4517   -0.0000   -0.0000 N   0  0  0  0  0  3           0  0  0
    3.5366   -0.7655    0.0328 N   0  0  0  0  0  3           0  0  0
   -0.5918    1.6454    6.1991 N   0  0  0  0  0  3           0  0  0
    3.5479    0.6046    0.0559 C   0  0  0  0  0  4           0  0  0
    2.2661   -1.1153   -0.0000 C   0  0  0  0  0  4           0  0  0
    2.2641    1.1156    0.0350 C   0  0  0  0  0  4           0  0  0
   -1.6728    0.7720    6.4261 C   0  0  0  0  0  4           0  0  0
   -2.1453   -0.0589    5.3817 C   0  0  0  0  0  4           0  0  0
   -1.5949   -0.0346    4.0218 C   0  0  0  0  0  4           0  0  0
   -0.5417    0.0000    1.3969 C   0  0  0  0  0  4           0  0  0
   -2.2728    0.7068    7.6961 C   0  0  0  0  0  4           0  0  0
   -3.2050   -0.9452    5.6644 C   0  0  0  0  0  4           0  0  0
   -0.5238   -0.8680    3.6667 C   0  0  0  0  0  4           0  0  0
   -2.1311    0.8168    3.0445 C   0  0  0  0  0  4           0  0  0
   -0.0045   -0.8523    2.3690 C   0  0  0  0  0  4           0  0  0
   -1.6131    0.8316    1.7462 C   0  0  0  0  0  4           0  0  0
   -3.3249   -0.1741    7.9436 C   0  0  0  0  0  4           0  0  0
   -3.7892   -1.0020    6.9296 C   0  0  0  0  0  4           0  0  0
    1.1431    3.2720    6.4071 C   0  0  2  0  0  4           0  0  0
    0.0176    2.5276    7.0638 C   0  0  0  0  0  4           0  0  0
    1.7757    2.5111    0.0435 C   0  0  0  0  0  4           0  0  0
    0.0000    0.0000    0.0000 C   0  0  0  0  0  4           0  0  0
    1.7755   -2.5195   -0.0391 C   0  0  0  0  0  4           0  0  0
    2.5143   -3.3935    0.9680 C   0  0  0  0  0  4           0  0  0
    2.0662   -4.8554    0.9893 C   0  0  0  0  0  4           0  0  0
    2.8259   -5.6943    2.0059 C   0  0  0  0  0  4           0  0  0
  1 10  1  0     0  0
  2 25  1  0     0  0
  3 25  1  0     0  0
  4 25  1  0     0  0
  5 26  2  0     0  0
  6 27  1  0     0  0
  7 11  1  0     0  0
  7 12  1  0     0  0
  7 28  1  0     0  0
  8 10  1  0     0  0
  8 11  2  0     0  0
  9 13  1  0     0  0
  9 26  1  0     0  0
 10 12  2  0     0  0
 11 29  1  0     0  0
 12 27  1  0     0  0
 13 14  1  0     0  0
 13 17  2  0     0  0
 14 15  1  0     0  0
 14 18  2  0     0  0
 15 19  2  0     0  0
 15 20  1  0     0  0
 16 21  2  0     0  0
 16 22  1  0     0  0
 16 28  1  0     0  0
 17 23  1  0     0  0
 18 24  1  0     0  0
 19 21  1  0     0  0
 20 22  2  0     0  0
 23 24  2  0     0  0
 25 26  1  0     0  0
 29 30  1  0     0  0
 30 31  1  0     0  0
 31 32  1  0     0  0
M  END
> <standard_type>
pIC50

> <# Confs.>
25

> <canonical_smiles>
ClC(N=C1CCCC)=C(CO)N1CC2=CC=C(C3=CC=CC=C3NC(C(F)(F)F)=O)C=C2

> <standard_relation>
=

> <Publication_ID>
nan

> <predicted_activity_value>
5.045757490560675

> <actual_activity_value>
5.200659450546418

> <Compound>
20

> <standard_units>
nM

> hash
13975603633165952417

$$$$
20_
XXILIB    08252103443D 0   0.00000     0.00000

 32 34  0     1  0            999 V2000
    5.0035    1.4900    0.1073 Cl  0  0  0  0  0  1           0  0  0
   -4.4005   -2.9746    2.6934 F   0  0  0  0  0  1           0  0  0
   -5.0244   -4.7226    3.8388 F   0  0  0  0  0  1           0  0  0
   -6.4672   -3.1620    3.3573 F   0  0  0  0  0  1           0  0  0
   -5.4203   -2.9109    6.0595 O   0  0  0  0  0  2           0  0  0
    1.6633    2.9423   -1.3061 O   0  0  0  0  0  2           0  0  0
    1.4517   -0.0000   -0.0000 N   0  0  0  0  0  3           0  0  0
    3.5366   -0.7655    0.0328 N   0  0  0  0  0  3           0  0  0
   -3.8088   -1.7680    4.8359 N   0  0  0  0  0  3           0  0  0
    3.5479    0.6046    0.0559 C   0  0  0  0  0  4           0  0  0
    2.2661   -1.1153   -0.0000 C   0  0  0  0  0  4           0  0  0
    2.2641    1.1156    0.0350 C   0  0  0  0  0  4           0  0  0
   -3.2009   -0.9155    5.7774 C   0  0  0  0  0  4           0  0  0
   -2.1453   -0.0589    5.3817 C   0  0  0  0  0  4           0  0  0
   -1.5949   -0.0346    4.0218 C   0  0  0  0  0  4           0  0  0
   -0.5417    0.0000    1.3969 C   0  0  0  0  0  4           0  0  0
   -3.6538   -0.8968    7.1085 C   0  0  0  0  0  4           0  0  0
   -1.5916    0.8051    6.3488 C   0  0  0  0  0  4           0  0  0
   -0.5238   -0.8680    3.6667 C   0  0  0  0  0  4           0  0  0
   -2.1311    0.8168    3.0445 C   0  0  0  0  0  4           0  0  0
   -0.0045   -0.8523    2.3690 C   0  0  0  0  0  4           0  0  0
   -1.6131    0.8316    1.7462 C   0  0  0  0  0  4           0  0  0
   -3.0809   -0.0370    8.0448 C   0  0  0  0  0  4           0  0  0
   -2.0524    0.8158    7.6651 C   0  0  0  0  0  4           0  0  0
   -5.1798   -3.3786    3.7289 C   0  0  2  0  0  4           0  0  0
   -4.8371   -2.6687    5.0058 C   0  0  0  0  0  4           0  0  0
    1.7757    2.5111    0.0435 C   0  0  0  0  0  4           0  0  0
    0.0000    0.0000   -0.0000 C   0  0  0  0  0  4           0  0  0
    1.7755   -2.5195   -0.0391 C   0  0  0  0  0  4           0  0  0
    2.5143   -3.3935    0.9680 C   0  0  0  0  0  4           0  0  0
    2.0662   -4.8554    0.9893 C   0  0  0  0  0  4           0  0  0
    2.8259   -5.6943    2.0059 C   0  0  0  0  0  4           0  0  0
  1 10  1  0     0  0
  2 25  1  0     0  0
  3 25  1  0     0  0
  4 25  1  0     0  0
  5 26  2  0     0  0
  6 27  1  0     0  0
  7 11  1  0     0  0
  7 12  1  0     0  0
  7 28  1  0     0  0
  8 10  1  0     0  0
  8 11  2  0     0  0
  9 13  1  0     0  0
  9 26  1  0     0  0
 10 12  2  0     0  0
 11 29  1  0     0  0
 12 27  1  0     0  0
 13 14  1  0     0  0
 13 17  2  0     0  0
 14 15  1  0     0  0
 14 18  2  0     0  0
 15 19  2  0     0  0
 15 20  1  0     0  0
 16 21  2  0     0  0
 16 22  1  0     0  0
 16 28  1  0     0  0
 17 23  1  0     0  0
 18 24  1  0     0  0
 19 21  1  0     0  0
 20 22  2  0     0  0
 23 24  2  0     0  0
 25 26  1  0     0  0
 29 30  1  0     0  0
 30 31  1  0     0  0
 31 32  1  0     0  0
M  END
> <standard_type>
pIC50

> <# Confs.>
25

> <canonical_smiles>
ClC(N=C1CCCC)=C(CO)N1CC2=CC=C(C3=CC=CC=C3NC(C(F)(F)F)=O)C=C2

> <standard_relation>
=

> <Publication_ID>
nan

> <predicted_activity_value>
5.045757490560675

> <actual_activity_value>
5.200659450546418

> <Compound>
20

> <standard_units>
nM

> hash
13975603633165952417

$$$$
20_
XXILIB    08252103443D 0   0.00000     0.00000

 32 34  0     1  0            999 V2000
    5.0035    1.4900    0.1073 Cl  0  0  0  0  0  1           0  0  0
    1.3083    2.9096    5.1093 F   0  0  0  0  0  1           0  0  0
    0.9383    4.6138    6.4192 F   0  0  0  0  0  1           0  0  0
    2.3291    3.0509    7.0291 F   0  0  0  0  0  1           0  0  0
   -0.2991    2.7301    8.2333 O   0  0  0  0  0  2           0  0  0
    1.6633    2.9423   -1.3061 O   0  0  0  0  0  2           0  0  0
    1.4517    0.0000   -0.0000 N   0  0  0  0  0  3           0  0  0
    3.5366   -0.7655    0.0328 N   0  0  0  0  0  3           0  0  0
   -0.5918    1.6454    6.1991 N   0  0  0  0  0  3           0  0  0
    3.5479    0.6046    0.0559 C   0  0  0  0  0  4           0  0  0
    2.2661   -1.1153    0.0000 C   0  0  0  0  0  4           0  0  0
    2.2641    1.1156    0.0350 C   0  0  0  0  0  4           0  0  0
   -1.6728    0.7720    6.4261 C   0  0  0  0  0  4           0  0  0
   -2.1453   -0.0589    5.3817 C   0  0  0  0  0  4           0  0  0
   -1.5949   -0.0346    4.0218 C   0  0  0  0  0  4           0  0  0
   -0.5417    0.0000    1.3969 C   0  0  0  0  0  4           0  0  0
   -2.2728    0.7068    7.6961 C   0  0  0  0  0  4           0  0  0
   -3.2050   -0.9452    5.6644 C   0  0  0  0  0  4           0  0  0
   -0.5238   -0.8680    3.6667 C   0  0  0  0  0  4           0  0  0
   -2.1311    0.8168    3.0445 C   0  0  0  0  0  4           0  0  0
   -0.0045   -0.8523    2.3690 C   0  0  0  0  0  4           0  0  0
   -1.6131    0.8316    1.7462 C   0  0  0  0  0  4           0  0  0
   -3.3249   -0.1741    7.9436 C   0  0  0  0  0  4           0  0  0
   -3.7892   -1.0020    6.9296 C   0  0  0  0  0  4           0  0  0
    1.1431    3.2720    6.4071 C   0  0  2  0  0  4           0  0  0
    0.0176    2.5276    7.0638 C   0  0  0  0  0  4           0  0  0
    1.7757    2.5111    0.0435 C   0  0  0  0  0  4           0  0  0
    0.0000    0.0000    0.0000 C   0  0  0  0  0  4           0  0  0
    1.7755   -2.5195   -0.0391 C   0  0  0  0  0  4           0  0  0
    1.6292   -3.0164   -1.4728 C   0  0  0  0  0  4           0  0  0
    2.9253   -3.0050   -2.2843 C   0  0  0  0  0  4           0  0  0
    2.7385   -3.5072   -3.7081 C   0  0  0  0  0  4           0  0  0
  1 10  1  0     0  0
  2 25  1  0     0  0
  3 25  1  0     0  0
  4 25  1  0     0  0
  5 26  2  0     0  0
  6 27  1  0     0  0
  7 11  1  0     0  0
  7 12  1  0     0  0
  7 28  1  0     0  0
  8 10  1  0     0  0
  8 11  2  0     0  0
  9 13  1  0     0  0
  9 26  1  0     0  0
 10 12  2  0     0  0
 11 29  1  0     0  0
 12 27  1  0     0  0
 13 14  1  0     0  0
 13 17  2  0     0  0
 14 15  1  0     0  0
 14 18  2  0     0  0
 15 19  2  0     0  0
 15 20  1  0     0  0
 16 21  2  0     0  0
 16 22  1  0     0  0
 16 28  1  0     0  0
 17 23  1  0     0  0
 18 24  1  0     0  0
 19 21  1  0     0  0
 20 22  2  0     0  0
 23 24  2  0     0  0
 25 26  1  0     0  0
 29 30  1  0     0  0
 30 31  1  0     0  0
 31 32  1  0     0  0
M  END
> <standard_type>
pIC50

> <# Confs.>
25

> <canonical_smiles>
ClC(N=C1CCCC)=C(CO)N1CC2=CC=C(C3=CC=CC=C3NC(C(F)(F)F)=O)C=C2

> <standard_relation>
=

> <Publication_ID>
nan

> <predicted_activity_value>
5.045757490560675

> <actual_activity_value>
5.200659450546418

> <Compound>
20

> <standard_units>
nM

> hash
13975603633165952417

$$$$
20_
XXILIB    08252103443D 0   0.00000     0.00000

 32 34  0     1  0            999 V2000
    5.0035   -1.4900   -0.1073 Cl  0  0  0  0  0  1           0  0  0
   -1.3815    4.3158    3.8641 F   0  0  0  0  0  1           0  0  0
   -2.8911    5.6704    4.6661 F   0  0  0  0  0  1           0  0  0
   -0.8869    5.6411    5.5214 F   0  0  0  0  0  1           0  0  0
   -2.7830    4.0825    7.0823 O   0  0  0  0  0  2           0  0  0
    0.7515   -2.6209    0.9358 O   0  0  0  0  0  2           0  0  0
    1.4517   -0.0000    0.0000 N   0  0  0  0  0  3           0  0  0
    3.5366    0.7655   -0.0328 N   0  0  0  0  0  3           0  0  0
   -2.1054    2.5248    5.4965 N   0  0  0  0  0  3           0  0  0
    3.5479   -0.6046   -0.0559 C   0  0  0  0  0  4           0  0  0
    2.2661    1.1153    0.0000 C   0  0  0  0  0  4           0  0  0
    2.2641   -1.1156   -0.0350 C   0  0  0  0  0  4           0  0  0
   -2.3793    1.2805    6.0960 C   0  0  0  0  0  4           0  0  0
   -2.0976    0.0801    5.4001 C   0  0  0  0  0  4           0  0  0
   -1.5655    0.0477    4.0332 C   0  0  0  0  0  4           0  0  0
   -0.5417   -0.0000    1.3969 C   0  0  0  0  0  4           0  0  0
   -2.9138    1.2255    7.3954 C   0  0  0  0  0  4           0  0  0
   -2.3525   -1.1432    6.0537 C   0  0  0  0  0  4           0  0  0
   -2.4289    0.0217    2.9279 C   0  0  0  0  0  4           0  0  0
   -0.1822    0.0490    3.8002 C   0  0  0  0  0  4           0  0  0
   -1.9230    0.0000    1.6250 C   0  0  0  0  0  4           0  0  0
    0.3240    0.0290    2.4974 C   0  0  0  0  0  4           0  0  0
   -3.1630    0.0005    8.0130 C   0  0  0  0  0  4           0  0  0
   -2.8800   -1.1835    7.3442 C   0  0  0  0  0  4           0  0  0
   -1.8666    4.8506    5.0137 C   0  0  2  0  0  4           0  0  0
   -2.2993    3.7962    5.9900 C   0  0  0  0  0  4           0  0  0
    1.7757   -2.5111   -0.0435 C   0  0  0  0  0  4           0  0  0
    0.0000    0.0000    0.0000 C   0  0  0  0  0  4           0  0  0
    1.7755    2.5195    0.0391 C   0  0  0  0  0  4           0  0  0
    1.5560    3.0698   -1.3655 C   0  0  0  0  0  4           0  0  0
    1.0505    4.5123   -1.4106 C   0  0  0  0  0  4           0  0  0
    0.8439    5.0247   -2.8280 C   0  0  0  0  0  4           0  0  0
  1 10  1  0     0  0
  2 25  1  0     0  0
  3 25  1  0     0  0
  4 25  1  0     0  0
  5 26  2  0     0  0
  6 27  1  0     0  0
  7 11  1  0     0  0
  7 12  1  0     0  0
  7 28  1  0     0  0
  8 10  1  0     0  0
  8 11  2  0     0  0
  9 13  1  0     0  0
  9 26  1  0     0  0
 10 12  2  0     0  0
 11 29  1  0     0  0
 12 27  1  0     0  0
 13 14  1  0     0  0
 13 17  2  0     0  0
 14 15  1  0     0  0
 14 18  2  0     0  0
 15 19  2  0     0  0
 15 20  1  0     0  0
 16 21  2  0     0  0
 16 22  1  0     0  0
 16 28  1  0     0  0
 17 23  1  0     0  0
 18 24  1  0     0  0
 19 21  1  0     0  0
 20 22  2  0     0  0
 23 24  2  0     0  0
 25 26  1  0     0  0
 29 30  1  0     0  0
 30 31  1  0     0  0
 31 32  1  0     0  0
M  END
> <standard_type>
pIC50

> <# Confs.>
25

> <canonical_smiles>
ClC(N=C1CCCC)=C(CO)N1CC2=CC=C(C3=CC=CC=C3NC(C(F)(F)F)=O)C=C2

> <standard_relation>
=

> <Publication_ID>
nan

> <predicted_activity_value>
5.045757490560675

> <actual_activity_value>
5.200659450546418

> <Compound>
20

> <standard_units>
nM

> hash
13975603633165952417

$$$$
20_
XXILIB    08252103443D 0   0.00000     0.00000

 32 34  0     1  0            999 V2000
    5.0035   -1.4900   -0.1073 Cl  0  0  0  0  0  1           0  0  0
   -1.6552   -4.2262    3.9601 F   0  0  0  0  0  1           0  0  0
   -1.1064   -5.5223    5.6263 F   0  0  0  0  0  1           0  0  0
   -3.1608   -5.4899    4.9000 F   0  0  0  0  0  1           0  0  0
   -2.7935   -3.8383    7.2660 O   0  0  0  0  0  2           0  0  0
    1.6633   -2.9423    1.3061 O   0  0  0  0  0  2           0  0  0
    1.4517   -0.0000    0.0000 N   0  0  0  0  0  3           0  0  0
    3.5366    0.7655   -0.0328 N   0  0  0  0  0  3           0  0  0
   -2.1963   -2.3582    5.5769 N   0  0  0  0  0  3           0  0  0
    3.5479   -0.6046   -0.0559 C   0  0  0  0  0  4           0  0  0
    2.2661    1.1153    0.0000 C   0  0  0  0  0  4           0  0  0
    2.2641   -1.1156   -0.0350 C   0  0  0  0  0  4           0  0  0
   -2.3796   -1.0860    6.1520 C   0  0  0  0  0  4           0  0  0
   -2.0976    0.0801    5.4001 C   0  0  0  0  0  4           0  0  0
   -1.5655    0.0477    4.0332 C   0  0  0  0  0  4           0  0  0
   -0.5417    0.0000    1.3969 C   0  0  0  0  0  4           0  0  0
   -2.8630   -0.9691    7.4672 C   0  0  0  0  0  4           0  0  0
   -2.3319    1.3332    6.0030 C   0  0  0  0  0  4           0  0  0
   -2.4289    0.0217    2.9279 C   0  0  0  0  0  4           0  0  0
   -0.1822    0.0490    3.8002 C   0  0  0  0  0  4           0  0  0
   -1.9230   -0.0000    1.6250 C   0  0  0  0  0  4           0  0  0
    0.3240    0.0290    2.4974 C   0  0  0  0  0  4           0  0  0
   -3.0771    0.2841    8.0397 C   0  0  0  0  0  4           0  0  0
   -2.8147    1.4349    7.3076 C   0  0  0  0  0  4           0  0  0
   -2.0832   -4.7054    5.1560 C   0  0  2  0  0  4           0  0  0
   -2.4072   -3.6049    6.1234 C   0  0  0  0  0  4           0  0  0
    1.7757   -2.5111   -0.0435 C   0  0  0  0  0  4           0  0  0
    0.0000    0.0000   -0.0000 C   0  0  0  0  0  4           0  0  0
    1.7755    2.5195    0.0391 C   0  0  0  0  0  4           0  0  0
    1.5560    3.0698   -1.3655 C   0  0  0  0  0  4           0  0  0
    1.0505    4.5123   -1.4106 C   0  0  0  0  0  4           0  0  0
    0.8439    5.0247   -2.8280 C   0  0  0  0  0  4           0  0  0
  1 10  1  0     0  0
  2 25  1  0     0  0
  3 25  1  0     0  0
  4 25  1  0     0  0
  5 26  2  0     0  0
  6 27  1  0     0  0
  7 11  1  0     0  0
  7 12  1  0     0  0
  7 28  1  0     0  0
  8 10  1  0     0  0
  8 11  2  0     0  0
  9 13  1  0     0  0
  9 26  1  0     0  0
 10 12  2  0     0  0
 11 29  1  0     0  0
 12 27  1  0     0  0
 13 14  1  0     0  0
 13 17  2  0     0  0
 14 15  1  0     0  0
 14 18  2  0     0  0
 15 19  2  0     0  0
 15 20  1  0     0  0
 16 21  2  0     0  0
 16 22  1  0     0  0
 16 28  1  0     0  0
 17 23  1  0     0  0
 18 24  1  0     0  0
 19 21  1  0     0  0
 20 22  2  0     0  0
 23 24  2  0     0  0
 25 26  1  0     0  0
 29 30  1  0     0  0
 30 31  1  0     0  0
 31 32  1  0     0  0
M  END
> <standard_type>
pIC50

> <# Confs.>
25

> <canonical_smiles>
ClC(N=C1CCCC)=C(CO)N1CC2=CC=C(C3=CC=CC=C3NC(C(F)(F)F)=O)C=C2

> <standard_relation>
=

> <Publication_ID>
nan

> <predicted_activity_value>
5.045757490560675

> <actual_activity_value>
5.200659450546418

> <Compound>
20

> <standard_units>
nM

> hash
13975603633165952417

$$$$
20_
XXILIB    08252103443D 0   0.00000     0.00000

 32 34  0     1  0            999 V2000
    5.0035    1.4900    0.1073 Cl  0  0  0  0  0  1           0  0  0
   -4.4005   -2.9746    2.6934 F   0  0  0  0  0  1           0  0  0
   -5.0244   -4.7226    3.8388 F   0  0  0  0  0  1           0  0  0
   -6.4672   -3.1620    3.3573 F   0  0  0  0  0  1           0  0  0
   -5.4203   -2.9109    6.0595 O   0  0  0  0  0  2           0  0  0
    1.6633    2.9423   -1.3061 O   0  0  0  0  0  2           0  0  0
    1.4517    0.0000   -0.0000 N   0  0  0  0  0  3           0  0  0
    3.5366   -0.7655    0.0328 N   0  0  0  0  0  3           0  0  0
   -3.8088   -1.7680    4.8359 N   0  0  0  0  0  3           0  0  0
    3.5479    0.6046    0.0559 C   0  0  0  0  0  4           0  0  0
    2.2661   -1.1153    0.0000 C   0  0  0  0  0  4           0  0  0
    2.2641    1.1156    0.0350 C   0  0  0  0  0  4           0  0  0
   -3.2009   -0.9155    5.7774 C   0  0  0  0  0  4           0  0  0
   -2.1453   -0.0589    5.3817 C   0  0  0  0  0  4           0  0  0
   -1.5949   -0.0346    4.0218 C   0  0  0  0  0  4           0  0  0
   -0.5417    0.0000    1.3969 C   0  0  0  0  0  4           0  0  0
   -3.6538   -0.8968    7.1085 C   0  0  0  0  0  4           0  0  0
   -1.5916    0.8051    6.3488 C   0  0  0  0  0  4           0  0  0
   -0.5238   -0.8680    3.6667 C   0  0  0  0  0  4           0  0  0
   -2.1311    0.8168    3.0445 C   0  0  0  0  0  4           0  0  0
   -0.0045   -0.8523    2.3690 C   0  0  0  0  0  4           0  0  0
   -1.6131    0.8316    1.7462 C   0  0  0  0  0  4           0  0  0
   -3.0809   -0.0370    8.0448 C   0  0  0  0  0  4           0  0  0
   -2.0524    0.8158    7.6651 C   0  0  0  0  0  4           0  0  0
   -5.1798   -3.3786    3.7289 C   0  0  2  0  0  4           0  0  0
   -4.8371   -2.6687    5.0058 C   0  0  0  0  0  4           0  0  0
    1.7757    2.5111    0.0435 C   0  0  0  0  0  4           0  0  0
    0.0000    0.0000   -0.0000 C   0  0  0  0  0  4           0  0  0
    1.7755   -2.5195   -0.0391 C   0  0  0  0  0  4           0  0  0
    1.6292   -3.0164   -1.4728 C   0  0  0  0  0  4           0  0  0
    2.9253   -3.0050   -2.2843 C   0  0  0  0  0  4           0  0  0
    2.7385   -3.5072   -3.7081 C   0  0  0  0  0  4           0  0  0
  1 10  1  0     0  0
  2 25  1  0     0  0
  3 25  1  0     0  0
  4 25  1  0     0  0
  5 26  2  0     0  0
  6 27  1  0     0  0
  7 11  1  0     0  0
  7 12  1  0     0  0
  7 28  1  0     0  0
  8 10  1  0     0  0
  8 11  2  0     0  0
  9 13  1  0     0  0
  9 26  1  0     0  0
 10 12  2  0     0  0
 11 29  1  0     0  0
 12 27  1  0     0  0
 13 14  1  0     0  0
 13 17  2  0     0  0
 14 15  1  0     0  0
 14 18  2  0     0  0
 15 19  2  0     0  0
 15 20  1  0     0  0
 16 21  2  0     0  0
 16 22  1  0     0  0
 16 28  1  0     0  0
 17 23  1  0     0  0
 18 24  1  0     0  0
 19 21  1  0     0  0
 20 22  2  0     0  0
 23 24  2  0     0  0
 25 26  1  0     0  0
 29 30  1  0     0  0
 30 31  1  0     0  0
 31 32  1  0     0  0
M  END
> <standard_type>
pIC50

> <# Confs.>
25

> <canonical_smiles>
ClC(N=C1CCCC)=C(CO)N1CC2=CC=C(C3=CC=CC=C3NC(C(F)(F)F)=O)C=C2

> <standard_relation>
=

> <Publication_ID>
nan

> <predicted_activity_value>
5.045757490560675

> <actual_activity_value>
5.200659450546418

> <Compound>
20

> <standard_units>
nM

> hash
13975603633165952417

$$$$
20_
XXILIB    08252103443D 0   0.00000     0.00000

 32 34  0     1  0            999 V2000
    5.0035    1.4900    0.1073 Cl  0  0  0  0  0  1           0  0  0
   -3.3898    3.7987    3.0945 F   0  0  0  0  0  1           0  0  0
   -5.3837    4.4179    3.7254 F   0  0  0  0  0  1           0  0  0
   -3.6284    5.4814    4.4579 F   0  0  0  0  0  1           0  0  0
   -4.6296    3.5377    6.3763 O   0  0  0  0  0  2           0  0  0
    1.6633    2.9423   -1.3061 O   0  0  0  0  0  2           0  0  0
    1.4517    0.0000   -0.0000 N   0  0  0  0  0  3           0  0  0
    3.5366   -0.7655    0.0328 N   0  0  0  0  0  3           0  0  0
   -3.2492    2.2116    5.0586 N   0  0  0  0  0  3           0  0  0
    3.5479    0.6046    0.0559 C   0  0  0  0  0  4           0  0  0
    2.2661   -1.1153    0.0000 C   0  0  0  0  0  4           0  0  0
    2.2641    1.1156    0.0350 C   0  0  0  0  0  4           0  0  0
   -2.9308    1.1170    5.8852 C   0  0  0  0  0  4           0  0  0
   -2.0976    0.0801    5.4001 C   0  0  0  0  0  4           0  0  0
   -1.5655    0.0477    4.0332 C   0  0  0  0  0  4           0  0  0
   -0.5417   -0.0000    1.3969 C   0  0  0  0  0  4           0  0  0
   -3.4219    1.0602    7.2015 C   0  0  0  0  0  4           0  0  0
   -1.7741   -0.9776    6.2750 C   0  0  0  0  0  4           0  0  0
   -2.4289    0.0217    2.9279 C   0  0  0  0  0  4           0  0  0
   -0.1822    0.0490    3.8002 C   0  0  0  0  0  4           0  0  0
   -1.9230   -0.0000    1.6250 C   0  0  0  0  0  4           0  0  0
    0.3240    0.0290    2.4974 C   0  0  0  0  0  4           0  0  0
   -3.0914   -0.0029    8.0410 C   0  0  0  0  0  4           0  0  0
   -2.2656   -1.0200    7.5795 C   0  0  0  0  0  4           0  0  0
   -4.1076    4.2480    4.1556 C   0  0  2  0  0  4           0  0  0
   -4.0310    3.3134    5.3272 C   0  0  0  0  0  4           0  0  0
    1.7757    2.5111    0.0435 C   0  0  0  0  0  4           0  0  0
    0.0000    0.0000    0.0000 C   0  0  0  0  0  4           0  0  0
    1.7755   -2.5195   -0.0391 C   0  0  0  0  0  4           0  0  0
    1.6292   -3.0164   -1.4728 C   0  0  0  0  0  4           0  0  0
    2.9253   -3.0050   -2.2843 C   0  0  0  0  0  4           0  0  0
    2.7385   -3.5072   -3.7081 C   0  0  0  0  0  4           0  0  0
  1 10  1  0     0  0
  2 25  1  0     0  0
  3 25  1  0     0  0
  4 25  1  0     0  0
  5 26  2  0     0  0
  6 27  1  0     0  0
  7 11  1  0     0  0
  7 12  1  0     0  0
  7 28  1  0     0  0
  8 10  1  0     0  0
  8 11  2  0     0  0
  9 13  1  0     0  0
  9 26  1  0     0  0
 10 12  2  0     0  0
 11 29  1  0     0  0
 12 27  1  0     0  0
 13 14  1  0     0  0
 13 17  2  0     0  0
 14 15  1  0     0  0
 14 18  2  0     0  0
 15 19  2  0     0  0
 15 20  1  0     0  0
 16 21  2  0     0  0
 16 22  1  0     0  0
 16 28  1  0     0  0
 17 23  1  0     0  0
 18 24  1  0     0  0
 19 21  1  0     0  0
 20 22  2  0     0  0
 23 24  2  0     0  0
 25 26  1  0     0  0
 29 30  1  0     0  0
 30 31  1  0     0  0
 31 32  1  0     0  0
M  END
> <standard_type>
pIC50

> <# Confs.>
25

> <canonical_smiles>
ClC(N=C1CCCC)=C(CO)N1CC2=CC=C(C3=CC=CC=C3NC(C(F)(F)F)=O)C=C2

> <standard_relation>
=

> <Publication_ID>
nan

> <predicted_activity_value>
5.045757490560675

> <actual_activity_value>
5.200659450546418

> <Compound>
20

> <standard_units>
nM

> hash
13975603633165952417

$$$$
20_
XXILIB    08252103443D 0   0.00000     0.00000

 32 34  0     1  0            999 V2000
    5.0035    1.4900    0.1073 Cl  0  0  0  0  0  1           0  0  0
   -1.3815    4.3158    3.8641 F   0  0  0  0  0  1           0  0  0
   -2.8911    5.6704    4.6661 F   0  0  0  0  0  1           0  0  0
   -0.8869    5.6411    5.5214 F   0  0  0  0  0  1           0  0  0
   -2.7830    4.0825    7.0823 O   0  0  0  0  0  2           0  0  0
    1.6633    2.9423   -1.3061 O   0  0  0  0  0  2           0  0  0
    1.4517    0.0000   -0.0000 N   0  0  0  0  0  3           0  0  0
    3.5366   -0.7655    0.0328 N   0  0  0  0  0  3           0  0  0
   -2.1054    2.5248    5.4965 N   0  0  0  0  0  3           0  0  0
    3.5479    0.6046    0.0559 C   0  0  0  0  0  4           0  0  0
    2.2661   -1.1153    0.0000 C   0  0  0  0  0  4           0  0  0
    2.2641    1.1156    0.0350 C   0  0  0  0  0  4           0  0  0
   -2.3793    1.2805    6.0960 C   0  0  0  0  0  4           0  0  0
   -2.0976    0.0801    5.4001 C   0  0  0  0  0  4           0  0  0
   -1.5655    0.0477    4.0332 C   0  0  0  0  0  4           0  0  0
   -0.5417   -0.0000    1.3969 C   0  0  0  0  0  4           0  0  0
   -2.9138    1.2255    7.3954 C   0  0  0  0  0  4           0  0  0
   -2.3525   -1.1432    6.0537 C   0  0  0  0  0  4           0  0  0
   -2.4289    0.0217    2.9279 C   0  0  0  0  0  4           0  0  0
   -0.1822    0.0490    3.8002 C   0  0  0  0  0  4           0  0  0
   -1.9230    0.0000    1.6250 C   0  0  0  0  0  4           0  0  0
    0.3240    0.0290    2.4974 C   0  0  0  0  0  4           0  0  0
   -3.1630    0.0005    8.0130 C   0  0  0  0  0  4           0  0  0
   -2.8800   -1.1835    7.3442 C   0  0  0  0  0  4           0  0  0
   -1.8666    4.8506    5.0137 C   0  0  2  0  0  4           0  0  0
   -2.2993    3.7962    5.9900 C   0  0  0  0  0  4           0  0  0
    1.7757    2.5111    0.0435 C   0  0  0  0  0  4           0  0  0
    0.0000    0.0000    0.0000 C   0  0  0  0  0  4           0  0  0
    1.7755   -2.5195   -0.0391 C   0  0  0  0  0  4           0  0  0
    1.5560   -3.0698    1.3655 C   0  0  0  0  0  4           0  0  0
    1.0505   -4.5123    1.4106 C   0  0  0  0  0  4           0  0  0
    0.8439   -5.0247    2.8280 C   0  0  0  0  0  4           0  0  0
  1 10  1  0     0  0
  2 25  1  0     0  0
  3 25  1  0     0  0
  4 25  1  0     0  0
  5 26  2  0     0  0
  6 27  1  0     0  0
  7 11  1  0     0  0
  7 12  1  0     0  0
  7 28  1  0     0  0
  8 10  1  0     0  0
  8 11  2  0     0  0
  9 13  1  0     0  0
  9 26  1  0     0  0
 10 12  2  0     0  0
 11 29  1  0     0  0
 12 27  1  0     0  0
 13 14  1  0     0  0
 13 17  2  0     0  0
 14 15  1  0     0  0
 14 18  2  0     0  0
 15 19  2  0     0  0
 15 20  1  0     0  0
 16 21  2  0     0  0
 16 22  1  0     0  0
 16 28  1  0     0  0
 17 23  1  0     0  0
 18 24  1  0     0  0
 19 21  1  0     0  0
 20 22  2  0     0  0
 23 24  2  0     0  0
 25 26  1  0     0  0
 29 30  1  0     0  0
 30 31  1  0     0  0
 31 32  1  0     0  0
M  END
> <standard_type>
pIC50

> <# Confs.>
25

> <canonical_smiles>
ClC(N=C1CCCC)=C(CO)N1CC2=CC=C(C3=CC=CC=C3NC(C(F)(F)F)=O)C=C2

> <standard_relation>
=

> <Publication_ID>
nan

> <predicted_activity_value>
5.045757490560675

> <actual_activity_value>
5.200659450546418

> <Compound>
20

> <standard_units>
nM

> hash
13975603633165952417

$$$$
5_
XXILIB    08252103443D 0   0.00000     0.00000

 29 31  0     1  0            999 V2000
    4.9955    1.5038    0.1744 Cl  0  0  0  0  0  1           0  0  0
    0.7306   -2.9164   -0.1301 O   0  0  0  0  0  2           0  0  0
   -4.5076   -1.3605    3.8638 O   0  0  0  0  0  2           0  0  0
    2.9702   -3.2989   -0.0415 O   0  0  0  0  0  2           0  0  0
   -3.7690   -3.0628    5.1874 O   0  0  0  0  0  2           0  0  0
    1.4518   -0.0000    0.0000 N   0  0  0  0  0  3           0  0  0
    3.5373   -0.7554    0.0626 N   0  0  0  0  0  3           0  0  0
    3.5445    0.6136    0.0905 C   0  0  0  0  0  4           0  0  0
    2.2693   -1.1158    0.0000 C   0  0  0  0  0  4           0  0  0
    2.2598    1.1192    0.0452 C   0  0  0  0  0  4           0  0  0
   -2.1387   -0.0452    5.3858 C   0  0  0  0  0  4           0  0  0
   -1.5917   -0.0287    4.0225 C   0  0  0  0  0  4           0  0  0
   -3.1900   -0.8937    5.7956 C   0  0  0  0  0  4           0  0  0
   -0.5416   -0.0000    1.3969 C   0  0  0  0  0  4           0  0  0
   -1.5832    0.8064    6.3623 C   0  0  0  0  0  4           0  0  0
   -0.5222   -0.8642    3.6683 C   0  0  0  0  0  4           0  0  0
   -2.1293    0.8200    3.0435 C   0  0  0  0  0  4           0  0  0
   -3.6564   -0.8893    7.1194 C   0  0  0  0  0  4           0  0  0
   -0.0050   -0.8520    2.3698 C   0  0  0  0  0  4           0  0  0
   -1.6116    0.8327    1.7455 C   0  0  0  0  0  4           0  0  0
   -2.0466    0.8094    7.6811 C   0  0  0  0  0  4           0  0  0
   -3.0805   -0.0396    8.0594 C   0  0  0  0  0  4           0  0  0
    1.8766   -2.4921   -0.0638 C   0  0  0  0  0  4           0  0  0
   -3.8952   -1.7631    4.8384 C   0  0  0  0  0  4           0  0  0
    0.0000   -0.0000    0.0000 C   0  0  0  0  0  4           0  0  0
    1.7675    2.5238    0.0449 C   0  0  0  0  0  4           0  0  0
    1.6267    3.0965   -1.3636 C   0  0  0  0  0  4           0  0  0
    1.1229    4.5394   -1.4076 C   0  0  0  0  0  4           0  0  0
    1.0059    5.0464   -2.8360 C   0  0  0  0  0  4           0  0  0
  1  8  1  0     0  0
  2 23  2  0     0  0
  3 24  2  0     0  0
  4 23  1  0     0  0
  5 24  1  0     0  0
  6  9  1  0     0  0
  6 10  1  0     0  0
  6 25  1  0     0  0
  7  8  1  0     0  0
  7  9  2  0     0  0
  8 10  2  0     0  0
  9 23  1  0     0  0
 10 26  1  0     0  0
 11 12  1  0     0  0
 11 13  1  0     0  0
 11 15  2  0     0  0
 12 16  2  0     0  0
 12 17  1  0     0  0
 13 18  2  0     0  0
 13 24  1  0     0  0
 14 19  2  0     0  0
 14 20  1  0     0  0
 14 25  1  0     0  0
 15 21  1  0     0  0
 16 19  1  0     0  0
 17 20  2  0     0  0
 18 22  1  0     0  0
 21 22  2  0     0  0
 26 27  1  0     0  0
 27 28  1  0     0  0
 28 29  1  0     0  0
M  END
> <standard_type>
pIC50

> <# Confs.>
25

> <canonical_smiles>
ClC(N=C1C(O)=O)=C(CCCC)N1CC2=CC=C(C3=CC=CC=C3C(O)=O)C=C2

> <standard_relation>
=

> <Publication_ID>
nan

> <predicted_activity_value>
7.1249387366083

> <actual_activity_value>
7.036212172654444

> <Compound>
5

> <standard_units>
nM

> hash
11575724701589501878

$$$$
5_
XXILIB    08252103443D 0   0.00000     0.00000

 29 31  0     1  0            999 V2000
    4.9955    1.5038    0.1744 Cl  0  0  0  0  0  1           0  0  0
    0.7306   -2.9164   -0.1301 O   0  0  0  0  0  2           0  0  0
   -0.4410    2.5578    5.4073 O   0  0  0  0  0  2           0  0  0
    2.9702   -3.2989   -0.0415 O   0  0  0  0  0  2           0  0  0
    0.4764    1.3604    7.1160 O   0  0  0  0  0  2           0  0  0
    1.4518   -0.0000    0.0000 N   0  0  0  0  0  3           0  0  0
    3.5373   -0.7554    0.0626 N   0  0  0  0  0  3           0  0  0
    3.5445    0.6136    0.0905 C   0  0  0  0  0  4           0  0  0
    2.2693   -1.1158    0.0000 C   0  0  0  0  0  4           0  0  0
    2.2598    1.1192    0.0452 C   0  0  0  0  0  4           0  0  0
   -2.1387   -0.0452    5.3858 C   0  0  0  0  0  4           0  0  0
   -1.5917   -0.0287    4.0225 C   0  0  0  0  0  4           0  0  0
   -1.6692    0.7859    6.4260 C   0  0  0  0  0  4           0  0  0
   -0.5416   -0.0000    1.3969 C   0  0  0  0  0  4           0  0  0
   -3.2080   -0.9122    5.6897 C   0  0  0  0  0  4           0  0  0
   -0.5222   -0.8642    3.6683 C   0  0  0  0  0  4           0  0  0
   -2.1293    0.8200    3.0435 C   0  0  0  0  0  4           0  0  0
   -2.2469    0.7502    7.7047 C   0  0  0  0  0  4           0  0  0
   -0.0050   -0.8520    2.3698 C   0  0  0  0  0  4           0  0  0
   -1.6116    0.8327    1.7455 C   0  0  0  0  0  4           0  0  0
   -3.7844   -0.9464    6.9627 C   0  0  0  0  0  4           0  0  0
   -3.3057   -0.1141    7.9682 C   0  0  0  0  0  4           0  0  0
    1.8766   -2.4921   -0.0638 C   0  0  0  0  0  4           0  0  0
   -0.5053    1.6691    6.2398 C   0  0  0  0  0  4           0  0  0
    0.0000   -0.0000    0.0000 C   0  0  0  0  0  4           0  0  0
    1.7675    2.5238    0.0449 C   0  0  0  0  0  4           0  0  0
    1.6267    3.0965   -1.3636 C   0  0  0  0  0  4           0  0  0
    1.1229    4.5394   -1.4076 C   0  0  0  0  0  4           0  0  0
    1.0059    5.0464   -2.8360 C   0  0  0  0  0  4           0  0  0
  1  8  1  0     0  0
  2 23  2  0     0  0
  3 24  2  0     0  0
  4 23  1  0     0  0
  5 24  1  0     0  0
  6  9  1  0     0  0
  6 10  1  0     0  0
  6 25  1  0     0  0
  7  8  1  0     0  0
  7  9  2  0     0  0
  8 10  2  0     0  0
  9 23  1  0     0  0
 10 26  1  0     0  0
 11 12  1  0     0  0
 11 13  1  0     0  0
 11 15  2  0     0  0
 12 16  2  0     0  0
 12 17  1  0     0  0
 13 18  2  0     0  0
 13 24  1  0     0  0
 14 19  2  0     0  0
 14 20  1  0     0  0
 14 25  1  0     0  0
 15 21  1  0     0  0
 16 19  1  0     0  0
 17 20  2  0     0  0
 18 22  1  0     0  0
 21 22  2  0     0  0
 26 27  1  0     0  0
 27 28  1  0     0  0
 28 29  1  0     0  0
M  END
> <standard_type>
pIC50

> <# Confs.>
25

> <canonical_smiles>
ClC(N=C1C(O)=O)=C(CCCC)N1CC2=CC=C(C3=CC=CC=C3C(O)=O)C=C2

> <standard_relation>
=

> <Publication_ID>
nan

> <predicted_activity_value>
7.1249387366083

> <actual_activity_value>
7.036212172654444

> <Compound>
5

> <standard_units>
nM

> hash
11575724701589501878

$$$$
5_
XXILIB    08252103443D 0   0.00000     0.00000

 29 31  0     1  0            999 V2000
    4.9955    1.5038    0.1744 Cl  0  0  0  0  0  1           0  0  0
    0.7306   -2.9164   -0.1301 O   0  0  0  0  0  2           0  0  0
   -0.4410    2.5578    5.4073 O   0  0  0  0  0  2           0  0  0
    2.9702   -3.2989   -0.0415 O   0  0  0  0  0  2           0  0  0
    0.4764    1.3604    7.1160 O   0  0  0  0  0  2           0  0  0
    1.4518   -0.0000    0.0000 N   0  0  0  0  0  3           0  0  0
    3.5373   -0.7554    0.0626 N   0  0  0  0  0  3           0  0  0
    3.5445    0.6136    0.0905 C   0  0  0  0  0  4           0  0  0
    2.2693   -1.1158    0.0000 C   0  0  0  0  0  4           0  0  0
    2.2598    1.1192    0.0452 C   0  0  0  0  0  4           0  0  0
   -2.1387   -0.0452    5.3858 C   0  0  0  0  0  4           0  0  0
   -1.5917   -0.0287    4.0225 C   0  0  0  0  0  4           0  0  0
   -1.6692    0.7859    6.4260 C   0  0  0  0  0  4           0  0  0
   -0.5416   -0.0000    1.3969 C   0  0  0  0  0  4           0  0  0
   -3.2080   -0.9122    5.6897 C   0  0  0  0  0  4           0  0  0
   -0.5222   -0.8642    3.6683 C   0  0  0  0  0  4           0  0  0
   -2.1293    0.8200    3.0435 C   0  0  0  0  0  4           0  0  0
   -2.2469    0.7502    7.7047 C   0  0  0  0  0  4           0  0  0
   -0.0050   -0.8520    2.3698 C   0  0  0  0  0  4           0  0  0
   -1.6116    0.8327    1.7455 C   0  0  0  0  0  4           0  0  0
   -3.7844   -0.9464    6.9627 C   0  0  0  0  0  4           0  0  0
   -3.3057   -0.1141    7.9682 C   0  0  0  0  0  4           0  0  0
    1.8766   -2.4921   -0.0638 C   0  0  0  0  0  4           0  0  0
   -0.5053    1.6691    6.2398 C   0  0  0  0  0  4           0  0  0
    0.0000   -0.0000    0.0000 C   0  0  0  0  0  4           0  0  0
    1.7675    2.5238    0.0449 C   0  0  0  0  0  4           0  0  0
    1.5198    3.0598    1.4531 C   0  0  0  0  0  4           0  0  0
    1.0127    4.5015    1.4963 C   0  0  0  0  0  4           0  0  0
    0.7874    4.9713    2.9245 C   0  0  0  0  0  4           0  0  0
  1  8  1  0     0  0
  2 23  2  0     0  0
  3 24  2  0     0  0
  4 23  1  0     0  0
  5 24  1  0     0  0
  6  9  1  0     0  0
  6 10  1  0     0  0
  6 25  1  0     0  0
  7  8  1  0     0  0
  7  9  2  0     0  0
  8 10  2  0     0  0
  9 23  1  0     0  0
 10 26  1  0     0  0
 11 12  1  0     0  0
 11 13  1  0     0  0
 11 15  2  0     0  0
 12 16  2  0     0  0
 12 17  1  0     0  0
 13 18  2  0     0  0
 13 24  1  0     0  0
 14 19  2  0     0  0
 14 20  1  0     0  0
 14 25  1  0     0  0
 15 21  1  0     0  0
 16 19  1  0     0  0
 17 20  2  0     0  0
 18 22  1  0     0  0
 21 22  2  0     0  0
 26 27  1  0     0  0
 27 28  1  0     0  0
 28 29  1  0     0  0
M  END
> <standard_type>
pIC50

> <# Confs.>
25

> <canonical_smiles>
ClC(N=C1C(O)=O)=C(CCCC)N1CC2=CC=C(C3=CC=CC=C3C(O)=O)C=C2

> <standard_relation>
=

> <Publication_ID>
nan

> <predicted_activity_value>
7.1249387366083

> <actual_activity_value>
7.036212172654444

> <Compound>
5

> <standard_units>
nM

> hash
11575724701589501878

$$$$
5_
XXILIB    08252103443D 0   0.00000     0.00000

 29 31  0     1  0            999 V2000
    4.9955    1.5038    0.1744 Cl  0  0  0  0  0  1           0  0  0
    0.7306   -2.9164   -0.1301 O   0  0  0  0  0  2           0  0  0
   -4.5076   -1.3605    3.8638 O   0  0  0  0  0  2           0  0  0
    2.9702   -3.2989   -0.0415 O   0  0  0  0  0  2           0  0  0
   -3.7690   -3.0628    5.1874 O   0  0  0  0  0  2           0  0  0
    1.4518   -0.0000    0.0000 N   0  0  0  0  0  3           0  0  0
    3.5373   -0.7554    0.0626 N   0  0  0  0  0  3           0  0  0
    3.5445    0.6136    0.0905 C   0  0  0  0  0  4           0  0  0
    2.2693   -1.1158    0.0000 C   0  0  0  0  0  4           0  0  0
    2.2598    1.1192    0.0452 C   0  0  0  0  0  4           0  0  0
   -2.1387   -0.0452    5.3858 C   0  0  0  0  0  4           0  0  0
   -1.5917   -0.0287    4.0225 C   0  0  0  0  0  4           0  0  0
   -3.1900   -0.8937    5.7956 C   0  0  0  0  0  4           0  0  0
   -0.5416   -0.0000    1.3969 C   0  0  0  0  0  4           0  0  0
   -1.5832    0.8064    6.3623 C   0  0  0  0  0  4           0  0  0
   -0.5222   -0.8642    3.6683 C   0  0  0  0  0  4           0  0  0
   -2.1293    0.8200    3.0435 C   0  0  0  0  0  4           0  0  0
   -3.6564   -0.8893    7.1194 C   0  0  0  0  0  4           0  0  0
   -0.0050   -0.8520    2.3698 C   0  0  0  0  0  4           0  0  0
   -1.6116    0.8327    1.7455 C   0  0  0  0  0  4           0  0  0
   -2.0466    0.8094    7.6811 C   0  0  0  0  0  4           0  0  0
   -3.0805   -0.0396    8.0594 C   0  0  0  0  0  4           0  0  0
    1.8766   -2.4921   -0.0638 C   0  0  0  0  0  4           0  0  0
   -3.8952   -1.7631    4.8384 C   0  0  0  0  0  4           0  0  0
    0.0000   -0.0000    0.0000 C   0  0  0  0  0  4           0  0  0
    1.7675    2.5238    0.0449 C   0  0  0  0  0  4           0  0  0
    1.5198    3.0598    1.4531 C   0  0  0  0  0  4           0  0  0
    1.0127    4.5015    1.4963 C   0  0  0  0  0  4           0  0  0
    0.7874    4.9713    2.9245 C   0  0  0  0  0  4           0  0  0
  1  8  1  0     0  0
  2 23  2  0     0  0
  3 24  2  0     0  0
  4 23  1  0     0  0
  5 24  1  0     0  0
  6  9  1  0     0  0
  6 10  1  0     0  0
  6 25  1  0     0  0
  7  8  1  0     0  0
  7  9  2  0     0  0
  8 10  2  0     0  0
  9 23  1  0     0  0
 10 26  1  0     0  0
 11 12  1  0     0  0
 11 13  1  0     0  0
 11 15  2  0     0  0
 12 16  2  0     0  0
 12 17  1  0     0  0
 13 18  2  0     0  0
 13 24  1  0     0  0
 14 19  2  0     0  0
 14 20  1  0     0  0
 14 25  1  0     0  0
 15 21  1  0     0  0
 16 19  1  0     0  0
 17 20  2  0     0  0
 18 22  1  0     0  0
 21 22  2  0     0  0
 26 27  1  0     0  0
 27 28  1  0     0  0
 28 29  1  0     0  0
M  END
> <standard_type>
pIC50

> <# Confs.>
25

> <canonical_smiles>
ClC(N=C1C(O)=O)=C(CCCC)N1CC2=CC=C(C3=CC=CC=C3C(O)=O)C=C2

> <standard_relation>
=

> <Publication_ID>
nan

> <predicted_activity_value>
7.1249387366083

> <actual_activity_value>
7.036212172654444

> <Compound>
5

> <standard_units>
nM

> hash
11575724701589501878

$$$$
5_
XXILIB    08252103443D 0   0.00000     0.00000

 29 31  0     1  0            999 V2000
    4.9955    1.5038    0.1744 Cl  0  0  0  0  0  1           0  0  0
    0.7306   -2.9164   -0.1301 O   0  0  0  0  0  2           0  0  0
    0.6142    1.2817    5.9506 O   0  0  0  0  0  2           0  0  0
    2.9702   -3.2989   -0.0415 O   0  0  0  0  0  2           0  0  0
   -0.8485    2.9622    6.4318 O   0  0  0  0  0  2           0  0  0
    1.4518   -0.0000    0.0000 N   0  0  0  0  0  3           0  0  0
    3.5373   -0.7554    0.0626 N   0  0  0  0  0  3           0  0  0
    3.5445    0.6136    0.0905 C   0  0  0  0  0  4           0  0  0
    2.2693   -1.1158    0.0000 C   0  0  0  0  0  4           0  0  0
    2.2598    1.1192    0.0452 C   0  0  0  0  0  4           0  0  0
   -2.1387   -0.0452    5.3858 C   0  0  0  0  0  4           0  0  0
   -1.5917   -0.0287    4.0225 C   0  0  0  0  0  4           0  0  0
   -1.6692    0.7859    6.4260 C   0  0  0  0  0  4           0  0  0
   -0.5416   -0.0000    1.3969 C   0  0  0  0  0  4           0  0  0
   -3.2080   -0.9122    5.6897 C   0  0  0  0  0  4           0  0  0
   -0.5222   -0.8642    3.6683 C   0  0  0  0  0  4           0  0  0
   -2.1293    0.8200    3.0435 C   0  0  0  0  0  4           0  0  0
   -2.2469    0.7502    7.7047 C   0  0  0  0  0  4           0  0  0
   -0.0050   -0.8520    2.3698 C   0  0  0  0  0  4           0  0  0
   -1.6116    0.8327    1.7455 C   0  0  0  0  0  4           0  0  0
   -3.7844   -0.9464    6.9627 C   0  0  0  0  0  4           0  0  0
   -3.3057   -0.1141    7.9682 C   0  0  0  0  0  4           0  0  0
    1.8766   -2.4921   -0.0638 C   0  0  0  0  0  4           0  0  0
   -0.5053    1.6691    6.2398 C   0  0  0  0  0  4           0  0  0
    0.0000   -0.0000    0.0000 C   0  0  0  0  0  4           0  0  0
    1.7675    2.5238    0.0449 C   0  0  0  0  0  4           0  0  0
    1.5198    3.0598    1.4531 C   0  0  0  0  0  4           0  0  0
    1.0127    4.5015    1.4963 C   0  0  0  0  0  4           0  0  0
    0.7874    4.9713    2.9245 C   0  0  0  0  0  4           0  0  0
  1  8  1  0     0  0
  2 23  2  0     0  0
  3 24  2  0     0  0
  4 23  1  0     0  0
  5 24  1  0     0  0
  6  9  1  0     0  0
  6 10  1  0     0  0
  6 25  1  0     0  0
  7  8  1  0     0  0
  7  9  2  0     0  0
  8 10  2  0     0  0
  9 23  1  0     0  0
 10 26  1  0     0  0
 11 12  1  0     0  0
 11 13  1  0     0  0
 11 15  2  0     0  0
 12 16  2  0     0  0
 12 17  1  0     0  0
 13 18  2  0     0  0
 13 24  1  0     0  0
 14 19  2  0     0  0
 14 20  1  0     0  0
 14 25  1  0     0  0
 15 21  1  0     0  0
 16 19  1  0     0  0
 17 20  2  0     0  0
 18 22  1  0     0  0
 21 22  2  0     0  0
 26 27  1  0     0  0
 27 28  1  0     0  0
 28 29  1  0     0  0
M  END
> <standard_type>
pIC50

> <# Confs.>
25

> <canonical_smiles>
ClC(N=C1C(O)=O)=C(CCCC)N1CC2=CC=C(C3=CC=CC=C3C(O)=O)C=C2

> <standard_relation>
=

> <Publication_ID>
nan

> <predicted_activity_value>
7.1249387366083

> <actual_activity_value>
7.036212172654444

> <Compound>
5

> <standard_units>
nM

> hash
11575724701589501878

$$$$
5_
XXILIB    08252103443D 0   0.00000     0.00000

 29 31  0     1  0            999 V2000
    4.9955    1.5038    0.1744 Cl  0  0  0  0  0  1           0  0  0
    0.7306   -2.9164   -0.1301 O   0  0  0  0  0  2           0  0  0
    0.6142    1.2817    5.9506 O   0  0  0  0  0  2           0  0  0
    2.9702   -3.2989   -0.0415 O   0  0  0  0  0  2           0  0  0
   -0.8485    2.9622    6.4318 O   0  0  0  0  0  2           0  0  0
    1.4518   -0.0000    0.0000 N   0  0  0  0  0  3           0  0  0
    3.5373   -0.7554    0.0626 N   0  0  0  0  0  3           0  0  0
    3.5445    0.6136    0.0905 C   0  0  0  0  0  4           0  0  0
    2.2693   -1.1158    0.0000 C   0  0  0  0  0  4           0  0  0
    2.2598    1.1192    0.0452 C   0  0  0  0  0  4           0  0  0
   -2.1387   -0.0452    5.3858 C   0  0  0  0  0  4           0  0  0
   -1.5917   -0.0287    4.0225 C   0  0  0  0  0  4           0  0  0
   -1.6692    0.7859    6.4260 C   0  0  0  0  0  4           0  0  0
   -0.5416   -0.0000    1.3969 C   0  0  0  0  0  4           0  0  0
   -3.2080   -0.9122    5.6897 C   0  0  0  0  0  4           0  0  0
   -0.5222   -0.8642    3.6683 C   0  0  0  0  0  4           0  0  0
   -2.1293    0.8200    3.0435 C   0  0  0  0  0  4           0  0  0
   -2.2469    0.7502    7.7047 C   0  0  0  0  0  4           0  0  0
   -0.0050   -0.8520    2.3698 C   0  0  0  0  0  4           0  0  0
   -1.6116    0.8327    1.7455 C   0  0  0  0  0  4           0  0  0
   -3.7844   -0.9464    6.9627 C   0  0  0  0  0  4           0  0  0
   -3.3057   -0.1141    7.9682 C   0  0  0  0  0  4           0  0  0
    1.8766   -2.4921   -0.0638 C   0  0  0  0  0  4           0  0  0
   -0.5053    1.6691    6.2398 C   0  0  0  0  0  4           0  0  0
    0.0000   -0.0000    0.0000 C   0  0  0  0  0  4           0  0  0
    1.7675    2.5238    0.0449 C   0  0  0  0  0  4           0  0  0
    1.6267    3.0965   -1.3636 C   0  0  0  0  0  4           0  0  0
    1.1229    4.5394   -1.4076 C   0  0  0  0  0  4           0  0  0
    1.0059    5.0464   -2.8360 C   0  0  0  0  0  4           0  0  0
  1  8  1  0     0  0
  2 23  2  0     0  0
  3 24  2  0     0  0
  4 23  1  0     0  0
  5 24  1  0     0  0
  6  9  1  0     0  0
  6 10  1  0     0  0
  6 25  1  0     0  0
  7  8  1  0     0  0
  7  9  2  0     0  0
  8 10  2  0     0  0
  9 23  1  0     0  0
 10 26  1  0     0  0
 11 12  1  0     0  0
 11 13  1  0     0  0
 11 15  2  0     0  0
 12 16  2  0     0  0
 12 17  1  0     0  0
 13 18  2  0     0  0
 13 24  1  0     0  0
 14 19  2  0     0  0
 14 20  1  0     0  0
 14 25  1  0     0  0
 15 21  1  0     0  0
 16 19  1  0     0  0
 17 20  2  0     0  0
 18 22  1  0     0  0
 21 22  2  0     0  0
 26 27  1  0     0  0
 27 28  1  0     0  0
 28 29  1  0     0  0
M  END
> <standard_type>
pIC50

> <# Confs.>
25

> <canonical_smiles>
ClC(N=C1C(O)=O)=C(CCCC)N1CC2=CC=C(C3=CC=CC=C3C(O)=O)C=C2

> <standard_relation>
=

> <Publication_ID>
nan

> <predicted_activity_value>
7.1249387366083

> <actual_activity_value>
7.036212172654444

> <Compound>
5

> <standard_units>
nM

> hash
11575724701589501878

$$$$
5_
XXILIB    08252103443D 0   0.00000     0.00000

 29 31  0     1  0            999 V2000
    4.9955    1.5038    0.1744 Cl  0  0  0  0  0  1           0  0  0
    0.7306   -2.9164   -0.1301 O   0  0  0  0  0  2           0  0  0
   -3.3589   -2.6338    4.1740 O   0  0  0  0  0  2           0  0  0
    2.9702   -3.2989   -0.0415 O   0  0  0  0  0  2           0  0  0
   -5.2128   -1.4646    4.7994 O   0  0  0  0  0  2           0  0  0
    1.4518   -0.0000    0.0000 N   0  0  0  0  0  3           0  0  0
    3.5373   -0.7554    0.0626 N   0  0  0  0  0  3           0  0  0
    3.5445    0.6136    0.0905 C   0  0  0  0  0  4           0  0  0
    2.2693   -1.1158    0.0000 C   0  0  0  0  0  4           0  0  0
    2.2598    1.1192    0.0452 C   0  0  0  0  0  4           0  0  0
   -2.1387   -0.0452    5.3858 C   0  0  0  0  0  4           0  0  0
   -1.5917   -0.0287    4.0225 C   0  0  0  0  0  4           0  0  0
   -3.1900   -0.8937    5.7956 C   0  0  0  0  0  4           0  0  0
   -0.5416   -0.0000    1.3969 C   0  0  0  0  0  4           0  0  0
   -1.5832    0.8064    6.3623 C   0  0  0  0  0  4           0  0  0
   -0.5222   -0.8642    3.6683 C   0  0  0  0  0  4           0  0  0
   -2.1293    0.8200    3.0435 C   0  0  0  0  0  4           0  0  0
   -3.6564   -0.8893    7.1194 C   0  0  0  0  0  4           0  0  0
   -0.0050   -0.8520    2.3698 C   0  0  0  0  0  4           0  0  0
   -1.6116    0.8327    1.7455 C   0  0  0  0  0  4           0  0  0
   -2.0466    0.8094    7.6811 C   0  0  0  0  0  4           0  0  0
   -3.0805   -0.0396    8.0594 C   0  0  0  0  0  4           0  0  0
    1.8766   -2.4921   -0.0638 C   0  0  0  0  0  4           0  0  0
   -3.8952   -1.7631    4.8384 C   0  0  0  0  0  4           0  0  0
    0.0000   -0.0000    0.0000 C   0  0  0  0  0  4           0  0  0
    1.7675    2.5238    0.0449 C   0  0  0  0  0  4           0  0  0
    1.6267    3.0965   -1.3636 C   0  0  0  0  0  4           0  0  0
    1.1229    4.5394   -1.4076 C   0  0  0  0  0  4           0  0  0
    1.0059    5.0464   -2.8360 C   0  0  0  0  0  4           0  0  0
  1  8  1  0     0  0
  2 23  2  0     0  0
  3 24  2  0     0  0
  4 23  1  0     0  0
  5 24  1  0     0  0
  6  9  1  0     0  0
  6 10  1  0     0  0
  6 25  1  0     0  0
  7  8  1  0     0  0
  7  9  2  0     0  0
  8 10  2  0     0  0
  9 23  1  0     0  0
 10 26  1  0     0  0
 11 12  1  0     0  0
 11 13  1  0     0  0
 11 15  2  0     0  0
 12 16  2  0     0  0
 12 17  1  0     0  0
 13 18  2  0     0  0
 13 24  1  0     0  0
 14 19  2  0     0  0
 14 20  1  0     0  0
 14 25  1  0     0  0
 15 21  1  0     0  0
 16 19  1  0     0  0
 17 20  2  0     0  0
 18 22  1  0     0  0
 21 22  2  0     0  0
 26 27  1  0     0  0
 27 28  1  0     0  0
 28 29  1  0     0  0
M  END
> <standard_type>
pIC50

> <# Confs.>
25

> <canonical_smiles>
ClC(N=C1C(O)=O)=C(CCCC)N1CC2=CC=C(C3=CC=CC=C3C(O)=O)C=C2

> <standard_relation>
=

> <Publication_ID>
nan

> <predicted_activity_value>
7.1249387366083

> <actual_activity_value>
7.036212172654444

> <Compound>
5

> <standard_units>
nM

> hash
11575724701589501878

$$$$
5_
XXILIB    08252103443D 0   0.00000     0.00000

 29 31  0     1  0            999 V2000
    4.9955   -1.5038   -0.1744 Cl  0  0  0  0  0  1           0  0  0
    0.7306    2.9164    0.1301 O   0  0  0  0  0  2           0  0  0
   -0.7303   -2.7238    5.4293 O   0  0  0  0  0  2           0  0  0
    2.9702    3.2989    0.0415 O   0  0  0  0  0  2           0  0  0
    0.4832   -1.5339    6.9481 O   0  0  0  0  0  2           0  0  0
    1.4518    0.0000   -0.0000 N   0  0  0  0  0  3           0  0  0
    3.5373    0.7554   -0.0626 N   0  0  0  0  0  3           0  0  0
    3.5445   -0.6136   -0.0905 C   0  0  0  0  0  4           0  0  0
    2.2693    1.1158    0.0000 C   0  0  0  0  0  4           0  0  0
    2.2598   -1.1192   -0.0452 C   0  0  0  0  0  4           0  0  0
   -2.1368    0.0472    5.3865 C   0  0  0  0  0  4           0  0  0
   -1.5905    0.0300    4.0229 C   0  0  0  0  0  4           0  0  0
   -1.6512   -0.7666    6.4330 C   0  0  0  0  0  4           0  0  0
   -0.5416    0.0000    1.3969 C   0  0  0  0  0  4           0  0  0
   -3.1874    0.9342    5.6977 C   0  0  0  0  0  4           0  0  0
   -2.1104   -0.8392    3.0525 C   0  0  0  0  0  4           0  0  0
   -0.5395    0.8852    3.6599 C   0  0  0  0  0  4           0  0  0
   -2.1910   -0.6902    7.7264 C   0  0  0  0  0  4           0  0  0
   -1.5938   -0.8520    1.7539 C   0  0  0  0  0  4           0  0  0
   -0.0225    0.8716    2.3616 C   0  0  0  0  0  4           0  0  0
   -3.7237    1.0116    6.9863 C   0  0  0  0  0  4           0  0  0
   -3.2240    0.2017    7.9999 C   0  0  0  0  0  4           0  0  0
    1.8766    2.4921    0.0638 C   0  0  0  0  0  4           0  0  0
   -0.6129   -1.7845    6.1981 C   0  0  0  0  0  4           0  0  0
   -0.0000    0.0000    0.0000 C   0  0  0  0  0  4           0  0  0
    1.7675   -2.5238   -0.0449 C   0  0  0  0  0  4           0  0  0
    1.6267   -3.0965    1.3636 C   0  0  0  0  0  4           0  0  0
    1.1229   -4.5394    1.4076 C   0  0  0  0  0  4           0  0  0
    1.0059   -5.0464    2.8360 C   0  0  0  0  0  4           0  0  0
  1  8  1  0     0  0
  2 23  2  0     0  0
  3 24  2  0     0  0
  4 23  1  0     0  0
  5 24  1  0     0  0
  6  9  1  0     0  0
  6 10  1  0     0  0
  6 25  1  0     0  0
  7  8  1  0     0  0
  7  9  2  0     0  0
  8 10  2  0     0  0
  9 23  1  0     0  0
 10 26  1  0     0  0
 11 12  1  0     0  0
 11 13  1  0     0  0
 11 15  2  0     0  0
 12 16  2  0     0  0
 12 17  1  0     0  0
 13 18  2  0     0  0
 13 24  1  0     0  0
 14 19  2  0     0  0
 14 20  1  0     0  0
 14 25  1  0     0  0
 15 21  1  0     0  0
 16 19  1  0     0  0
 17 20  2  0     0  0
 18 22  1  0     0  0
 21 22  2  0     0  0
 26 27  1  0     0  0
 27 28  1  0     0  0
 28 29  1  0     0  0
M  END
> <standard_type>
pIC50

> <# Confs.>
25

> <canonical_smiles>
ClC(N=C1C(O)=O)=C(CCCC)N1CC2=CC=C(C3=CC=CC=C3C(O)=O)C=C2

> <standard_relation>
=

> <Publication_ID>
nan

> <predicted_activity_value>
7.1249387366083

> <actual_activity_value>
7.036212172654444

> <Compound>
5

> <standard_units>
nM

> hash
11575724701589501878

$$$$
5_
XXILIB    08252103443D 0   0.00000     0.00000

 29 31  0     1  0            999 V2000
    4.9955   -1.5038   -0.1744 Cl  0  0  0  0  0  1           0  0  0
    0.7306    2.9164    0.1301 O   0  0  0  0  0  2           0  0  0
   -0.7303   -2.7238    5.4293 O   0  0  0  0  0  2           0  0  0
    2.9702    3.2989    0.0415 O   0  0  0  0  0  2           0  0  0
    0.4832   -1.5339    6.9481 O   0  0  0  0  0  2           0  0  0
    1.4518    0.0000   -0.0000 N   0  0  0  0  0  3           0  0  0
    3.5373    0.7554   -0.0626 N   0  0  0  0  0  3           0  0  0
    3.5445   -0.6136   -0.0905 C   0  0  0  0  0  4           0  0  0
    2.2693    1.1158    0.0000 C   0  0  0  0  0  4           0  0  0
    2.2598   -1.1192   -0.0452 C   0  0  0  0  0  4           0  0  0
   -2.1368    0.0472    5.3865 C   0  0  0  0  0  4           0  0  0
   -1.5905    0.0300    4.0229 C   0  0  0  0  0  4           0  0  0
   -1.6512   -0.7666    6.4330 C   0  0  0  0  0  4           0  0  0
   -0.5416    0.0000    1.3969 C   0  0  0  0  0  4           0  0  0
   -3.1874    0.9342    5.6977 C   0  0  0  0  0  4           0  0  0
   -2.1104   -0.8392    3.0525 C   0  0  0  0  0  4           0  0  0
   -0.5395    0.8852    3.6599 C   0  0  0  0  0  4           0  0  0
   -2.1910   -0.6902    7.7264 C   0  0  0  0  0  4           0  0  0
   -1.5938   -0.8520    1.7539 C   0  0  0  0  0  4           0  0  0
   -0.0225    0.8716    2.3616 C   0  0  0  0  0  4           0  0  0
   -3.7237    1.0116    6.9863 C   0  0  0  0  0  4           0  0  0
   -3.2240    0.2017    7.9999 C   0  0  0  0  0  4           0  0  0
    1.8766    2.4921    0.0638 C   0  0  0  0  0  4           0  0  0
   -0.6129   -1.7845    6.1981 C   0  0  0  0  0  4           0  0  0
   -0.0000    0.0000    0.0000 C   0  0  0  0  0  4           0  0  0
    1.7675   -2.5238   -0.0449 C   0  0  0  0  0  4           0  0  0
    1.5198   -3.0598   -1.4531 C   0  0  0  0  0  4           0  0  0
    1.0127   -4.5015   -1.4963 C   0  0  0  0  0  4           0  0  0
    0.7874   -4.9713   -2.9245 C   0  0  0  0  0  4           0  0  0
  1  8  1  0     0  0
  2 23  2  0     0  0
  3 24  2  0     0  0
  4 23  1  0     0  0
  5 24  1  0     0  0
  6  9  1  0     0  0
  6 10  1  0     0  0
  6 25  1  0     0  0
  7  8  1  0     0  0
  7  9  2  0     0  0
  8 10  2  0     0  0
  9 23  1  0     0  0
 10 26  1  0     0  0
 11 12  1  0     0  0
 11 13  1  0     0  0
 11 15  2  0     0  0
 12 16  2  0     0  0
 12 17  1  0     0  0
 13 18  2  0     0  0
 13 24  1  0     0  0
 14 19  2  0     0  0
 14 20  1  0     0  0
 14 25  1  0     0  0
 15 21  1  0     0  0
 16 19  1  0     0  0
 17 20  2  0     0  0
 18 22  1  0     0  0
 21 22  2  0     0  0
 26 27  1  0     0  0
 27 28  1  0     0  0
 28 29  1  0     0  0
M  END
> <standard_type>
pIC50

> <# Confs.>
25

> <canonical_smiles>
ClC(N=C1C(O)=O)=C(CCCC)N1CC2=CC=C(C3=CC=CC=C3C(O)=O)C=C2

> <standard_relation>
=

> <Publication_ID>
nan

> <predicted_activity_value>
7.1249387366083

> <actual_activity_value>
7.036212172654444

> <Compound>
5

> <standard_units>
nM

> hash
11575724701589501878

$$$$
5_
XXILIB    08252103443D 0   0.00000     0.00000

 29 31  0     1  0            999 V2000
    4.9955    1.5038    0.1744 Cl  0  0  0  0  0  1           0  0  0
    0.7306   -2.9164   -0.1301 O   0  0  0  0  0  2           0  0  0
   -3.3589   -2.6338    4.1740 O   0  0  0  0  0  2           0  0  0
    2.9702   -3.2989   -0.0415 O   0  0  0  0  0  2           0  0  0
   -5.2128   -1.4646    4.7994 O   0  0  0  0  0  2           0  0  0
    1.4518   -0.0000    0.0000 N   0  0  0  0  0  3           0  0  0
    3.5373   -0.7554    0.0626 N   0  0  0  0  0  3           0  0  0
    3.5445    0.6136    0.0905 C   0  0  0  0  0  4           0  0  0
    2.2693   -1.1158    0.0000 C   0  0  0  0  0  4           0  0  0
    2.2598    1.1192    0.0452 C   0  0  0  0  0  4           0  0  0
   -2.1387   -0.0452    5.3858 C   0  0  0  0  0  4           0  0  0
   -1.5917   -0.0287    4.0225 C   0  0  0  0  0  4           0  0  0
   -3.1900   -0.8937    5.7956 C   0  0  0  0  0  4           0  0  0
   -0.5416   -0.0000    1.3969 C   0  0  0  0  0  4           0  0  0
   -1.5832    0.8064    6.3623 C   0  0  0  0  0  4           0  0  0
   -0.5222   -0.8642    3.6683 C   0  0  0  0  0  4           0  0  0
   -2.1293    0.8200    3.0435 C   0  0  0  0  0  4           0  0  0
   -3.6564   -0.8893    7.1194 C   0  0  0  0  0  4           0  0  0
   -0.0050   -0.8520    2.3698 C   0  0  0  0  0  4           0  0  0
   -1.6116    0.8327    1.7455 C   0  0  0  0  0  4           0  0  0
   -2.0466    0.8094    7.6811 C   0  0  0  0  0  4           0  0  0
   -3.0805   -0.0396    8.0594 C   0  0  0  0  0  4           0  0  0
    1.8766   -2.4921   -0.0638 C   0  0  0  0  0  4           0  0  0
   -3.8952   -1.7631    4.8384 C   0  0  0  0  0  4           0  0  0
    0.0000   -0.0000    0.0000 C   0  0  0  0  0  4           0  0  0
    1.7675    2.5238    0.0449 C   0  0  0  0  0  4           0  0  0
    1.5198    3.0598    1.4531 C   0  0  0  0  0  4           0  0  0
    1.0127    4.5015    1.4963 C   0  0  0  0  0  4           0  0  0
    0.7874    4.9713    2.9245 C   0  0  0  0  0  4           0  0  0
  1  8  1  0     0  0
  2 23  2  0     0  0
  3 24  2  0     0  0
  4 23  1  0     0  0
  5 24  1  0     0  0
  6  9  1  0     0  0
  6 10  1  0     0  0
  6 25  1  0     0  0
  7  8  1  0     0  0
  7  9  2  0     0  0
  8 10  2  0     0  0
  9 23  1  0     0  0
 10 26  1  0     0  0
 11 12  1  0     0  0
 11 13  1  0     0  0
 11 15  2  0     0  0
 12 16  2  0     0  0
 12 17  1  0     0  0
 13 18  2  0     0  0
 13 24  1  0     0  0
 14 19  2  0     0  0
 14 20  1  0     0  0
 14 25  1  0     0  0
 15 21  1  0     0  0
 16 19  1  0     0  0
 17 20  2  0     0  0
 18 22  1  0     0  0
 21 22  2  0     0  0
 26 27  1  0     0  0
 27 28  1  0     0  0
 28 29  1  0     0  0
M  END
> <standard_type>
pIC50

> <# Confs.>
25

> <canonical_smiles>
ClC(N=C1C(O)=O)=C(CCCC)N1CC2=CC=C(C3=CC=CC=C3C(O)=O)C=C2

> <standard_relation>
=

> <Publication_ID>
nan

> <predicted_activity_value>
7.1249387366083

> <actual_activity_value>
7.036212172654444

> <Compound>
5

> <standard_units>
nM

> hash
11575724701589501878

$$$$
5_
XXILIB    08252103443D 0   0.00000     0.00000

 29 31  0     1  0            999 V2000
    4.9955    1.5038    0.1744 Cl  0  0  0  0  0  1           0  0  0
    0.7306   -2.9164   -0.1301 O   0  0  0  0  0  2           0  0  0
   -4.5076   -1.3605    3.8638 O   0  0  0  0  0  2           0  0  0
    2.9702   -3.2989   -0.0415 O   0  0  0  0  0  2           0  0  0
   -3.7690   -3.0628    5.1874 O   0  0  0  0  0  2           0  0  0
    1.4518   -0.0000    0.0000 N   0  0  0  0  0  3           0  0  0
    3.5373   -0.7554    0.0626 N   0  0  0  0  0  3           0  0  0
    3.5445    0.6136    0.0905 C   0  0  0  0  0  4           0  0  0
    2.2693   -1.1158    0.0000 C   0  0  0  0  0  4           0  0  0
    2.2598    1.1192    0.0452 C   0  0  0  0  0  4           0  0  0
   -2.1387   -0.0452    5.3858 C   0  0  0  0  0  4           0  0  0
   -1.5917   -0.0287    4.0225 C   0  0  0  0  0  4           0  0  0
   -3.1900   -0.8937    5.7956 C   0  0  0  0  0  4           0  0  0
   -0.5416   -0.0000    1.3969 C   0  0  0  0  0  4           0  0  0
   -1.5832    0.8064    6.3623 C   0  0  0  0  0  4           0  0  0
   -0.5222   -0.8642    3.6683 C   0  0  0  0  0  4           0  0  0
   -2.1293    0.8200    3.0435 C   0  0  0  0  0  4           0  0  0
   -3.6564   -0.8893    7.1194 C   0  0  0  0  0  4           0  0  0
   -0.0050   -0.8520    2.3698 C   0  0  0  0  0  4           0  0  0
   -1.6116    0.8327    1.7455 C   0  0  0  0  0  4           0  0  0
   -2.0466    0.8094    7.6811 C   0  0  0  0  0  4           0  0  0
   -3.0805   -0.0396    8.0594 C   0  0  0  0  0  4           0  0  0
    1.8766   -2.4921   -0.0638 C   0  0  0  0  0  4           0  0  0
   -3.8952   -1.7631    4.8384 C   0  0  0  0  0  4           0  0  0
    0.0000   -0.0000    0.0000 C   0  0  0  0  0  4           0  0  0
    1.7675    2.5238    0.0449 C   0  0  0  0  0  4           0  0  0
    1.6267    3.0965   -1.3636 C   0  0  0  0  0  4           0  0  0
    2.9300    3.1274   -2.1624 C   0  0  0  0  0  4           0  0  0
    2.7195    3.7075   -3.5518 C   0  0  0  0  0  4           0  0  0
  1  8  1  0     0  0
  2 23  2  0     0  0
  3 24  2  0     0  0
  4 23  1  0     0  0
  5 24  1  0     0  0
  6  9  1  0     0  0
  6 10  1  0     0  0
  6 25  1  0     0  0
  7  8  1  0     0  0
  7  9  2  0     0  0
  8 10  2  0     0  0
  9 23  1  0     0  0
 10 26  1  0     0  0
 11 12  1  0     0  0
 11 13  1  0     0  0
 11 15  2  0     0  0
 12 16  2  0     0  0
 12 17  1  0     0  0
 13 18  2  0     0  0
 13 24  1  0     0  0
 14 19  2  0     0  0
 14 20  1  0     0  0
 14 25  1  0     0  0
 15 21  1  0     0  0
 16 19  1  0     0  0
 17 20  2  0     0  0
 18 22  1  0     0  0
 21 22  2  0     0  0
 26 27  1  0     0  0
 27 28  1  0     0  0
 28 29  1  0     0  0
M  END
> <standard_type>
pIC50

> <# Confs.>
25

> <canonical_smiles>
ClC(N=C1C(O)=O)=C(CCCC)N1CC2=CC=C(C3=CC=CC=C3C(O)=O)C=C2

> <standard_relation>
=

> <Publication_ID>
nan

> <predicted_activity_value>
7.1249387366083

> <actual_activity_value>
7.036212172654444

> <Compound>
5

> <standard_units>
nM

> hash
11575724701589501878

$$$$
5_
XXILIB    08252103443D 0   0.00000     0.00000

 29 31  0     1  0            999 V2000
    4.9955    1.5038    0.1744 Cl  0  0  0  0  0  1           0  0  0
    0.7306   -2.9164   -0.1301 O   0  0  0  0  0  2           0  0  0
   -0.4410    2.5578    5.4073 O   0  0  0  0  0  2           0  0  0
    2.9702   -3.2989   -0.0415 O   0  0  0  0  0  2           0  0  0
    0.4764    1.3604    7.1160 O   0  0  0  0  0  2           0  0  0
    1.4518   -0.0000    0.0000 N   0  0  0  0  0  3           0  0  0
    3.5373   -0.7554    0.0626 N   0  0  0  0  0  3           0  0  0
    3.5445    0.6136    0.0905 C   0  0  0  0  0  4           0  0  0
    2.2693   -1.1158    0.0000 C   0  0  0  0  0  4           0  0  0
    2.2598    1.1192    0.0452 C   0  0  0  0  0  4           0  0  0
   -2.1387   -0.0452    5.3858 C   0  0  0  0  0  4           0  0  0
   -1.5917   -0.0287    4.0225 C   0  0  0  0  0  4           0  0  0
   -1.6692    0.7859    6.4260 C   0  0  0  0  0  4           0  0  0
   -0.5416   -0.0000    1.3969 C   0  0  0  0  0  4           0  0  0
   -3.2080   -0.9122    5.6897 C   0  0  0  0  0  4           0  0  0
   -0.5222   -0.8642    3.6683 C   0  0  0  0  0  4           0  0  0
   -2.1293    0.8200    3.0435 C   0  0  0  0  0  4           0  0  0
   -2.2469    0.7502    7.7047 C   0  0  0  0  0  4           0  0  0
   -0.0050   -0.8520    2.3698 C   0  0  0  0  0  4           0  0  0
   -1.6116    0.8327    1.7455 C   0  0  0  0  0  4           0  0  0
   -3.7844   -0.9464    6.9627 C   0  0  0  0  0  4           0  0  0
   -3.3057   -0.1141    7.9682 C   0  0  0  0  0  4           0  0  0
    1.8766   -2.4921   -0.0638 C   0  0  0  0  0  4           0  0  0
   -0.5053    1.6691    6.2398 C   0  0  0  0  0  4           0  0  0
    0.0000   -0.0000    0.0000 C   0  0  0  0  0  4           0  0  0
    1.7675    2.5238    0.0449 C   0  0  0  0  0  4           0  0  0
    1.6267    3.0965   -1.3636 C   0  0  0  0  0  4           0  0  0
    2.9300    3.1274   -2.1624 C   0  0  0  0  0  4           0  0  0
    2.7195    3.7075   -3.5518 C   0  0  0  0  0  4           0  0  0
  1  8  1  0     0  0
  2 23  2  0     0  0
  3 24  2  0     0  0
  4 23  1  0     0  0
  5 24  1  0     0  0
  6  9  1  0     0  0
  6 10  1  0     0  0
  6 25  1  0     0  0
  7  8  1  0     0  0
  7  9  2  0     0  0
  8 10  2  0     0  0
  9 23  1  0     0  0
 10 26  1  0     0  0
 11 12  1  0     0  0
 11 13  1  0     0  0
 11 15  2  0     0  0
 12 16  2  0     0  0
 12 17  1  0     0  0
 13 18  2  0     0  0
 13 24  1  0     0  0
 14 19  2  0     0  0
 14 20  1  0     0  0
 14 25  1  0     0  0
 15 21  1  0     0  0
 16 19  1  0     0  0
 17 20  2  0     0  0
 18 22  1  0     0  0
 21 22  2  0     0  0
 26 27  1  0     0  0
 27 28  1  0     0  0
 28 29  1  0     0  0
M  END
> <standard_type>
pIC50

> <# Confs.>
25

> <canonical_smiles>
ClC(N=C1C(O)=O)=C(CCCC)N1CC2=CC=C(C3=CC=CC=C3C(O)=O)C=C2

> <standard_relation>
=

> <Publication_ID>
nan

> <predicted_activity_value>
7.1249387366083

> <actual_activity_value>
7.036212172654444

> <Compound>
5

> <standard_units>
nM

> hash
11575724701589501878

$$$$
5_
XXILIB    08252103443D 0   0.00000     0.00000

 29 31  0     1  0            999 V2000
    4.9955   -1.5038   -0.1744 Cl  0  0  0  0  0  1           0  0  0
    0.7306    2.9164    0.1301 O   0  0  0  0  0  2           0  0  0
   -4.5076   -1.3605    3.8638 O   0  0  0  0  0  2           0  0  0
    2.9702    3.2989    0.0415 O   0  0  0  0  0  2           0  0  0
   -3.7690   -3.0628    5.1874 O   0  0  0  0  0  2           0  0  0
    1.4518    0.0000   -0.0000 N   0  0  0  0  0  3           0  0  0
    3.5373    0.7554   -0.0626 N   0  0  0  0  0  3           0  0  0
    3.5445   -0.6136   -0.0905 C   0  0  0  0  0  4           0  0  0
    2.2693    1.1158    0.0000 C   0  0  0  0  0  4           0  0  0
    2.2598   -1.1192   -0.0452 C   0  0  0  0  0  4           0  0  0
   -2.1387   -0.0452    5.3858 C   0  0  0  0  0  4           0  0  0
   -1.5917   -0.0287    4.0225 C   0  0  0  0  0  4           0  0  0
   -3.1900   -0.8937    5.7956 C   0  0  0  0  0  4           0  0  0
   -0.5416   -0.0000    1.3969 C   0  0  0  0  0  4           0  0  0
   -1.5832    0.8064    6.3623 C   0  0  0  0  0  4           0  0  0
   -0.5222   -0.8642    3.6683 C   0  0  0  0  0  4           0  0  0
   -2.1293    0.8200    3.0435 C   0  0  0  0  0  4           0  0  0
   -3.6564   -0.8893    7.1194 C   0  0  0  0  0  4           0  0  0
   -0.0050   -0.8520    2.3698 C   0  0  0  0  0  4           0  0  0
   -1.6116    0.8327    1.7455 C   0  0  0  0  0  4           0  0  0
   -2.0466    0.8094    7.6811 C   0  0  0  0  0  4           0  0  0
   -3.0805   -0.0396    8.0594 C   0  0  0  0  0  4           0  0  0
    1.8766    2.4921    0.0638 C   0  0  0  0  0  4           0  0  0
   -3.8952   -1.7631    4.8384 C   0  0  0  0  0  4           0  0  0
    0.0000   -0.0000    0.0000 C   0  0  0  0  0  4           0  0  0
    1.7675   -2.5238   -0.0449 C   0  0  0  0  0  4           0  0  0
    1.5198   -3.0598   -1.4531 C   0  0  0  0  0  4           0  0  0
    1.0127   -4.5015   -1.4963 C   0  0  0  0  0  4           0  0  0
    0.7874   -4.9713   -2.9245 C   0  0  0  0  0  4           0  0  0
  1  8  1  0     0  0
  2 23  2  0     0  0
  3 24  2  0     0  0
  4 23  1  0     0  0
  5 24  1  0     0  0
  6  9  1  0     0  0
  6 10  1  0     0  0
  6 25  1  0     0  0
  7  8  1  0     0  0
  7  9  2  0     0  0
  8 10  2  0     0  0
  9 23  1  0     0  0
 10 26  1  0     0  0
 11 12  1  0     0  0
 11 13  1  0     0  0
 11 15  2  0     0  0
 12 16  2  0     0  0
 12 17  1  0     0  0
 13 18  2  0     0  0
 13 24  1  0     0  0
 14 19  2  0     0  0
 14 20  1  0     0  0
 14 25  1  0     0  0
 15 21  1  0     0  0
 16 19  1  0     0  0
 17 20  2  0     0  0
 18 22  1  0     0  0
 21 22  2  0     0  0
 26 27  1  0     0  0
 27 28  1  0     0  0
 28 29  1  0     0  0
M  END
> <standard_type>
pIC50

> <# Confs.>
25

> <canonical_smiles>
ClC(N=C1C(O)=O)=C(CCCC)N1CC2=CC=C(C3=CC=CC=C3C(O)=O)C=C2

> <standard_relation>
=

> <Publication_ID>
nan

> <predicted_activity_value>
7.1249387366083

> <actual_activity_value>
7.036212172654444

> <Compound>
5

> <standard_units>
nM

> hash
11575724701589501878

$$$$
5_
XXILIB    08252103443D 0   0.00000     0.00000

 29 31  0     1  0            999 V2000
    4.9955   -1.5038   -0.1744 Cl  0  0  0  0  0  1           0  0  0
    0.7306    2.9164    0.1301 O   0  0  0  0  0  2           0  0  0
   -3.3589   -2.6338    4.1740 O   0  0  0  0  0  2           0  0  0
    2.9702    3.2989    0.0415 O   0  0  0  0  0  2           0  0  0
   -5.2128   -1.4646    4.7994 O   0  0  0  0  0  2           0  0  0
    1.4518    0.0000   -0.0000 N   0  0  0  0  0  3           0  0  0
    3.5373    0.7554   -0.0626 N   0  0  0  0  0  3           0  0  0
    3.5445   -0.6136   -0.0905 C   0  0  0  0  0  4           0  0  0
    2.2693    1.1158    0.0000 C   0  0  0  0  0  4           0  0  0
    2.2598   -1.1192   -0.0452 C   0  0  0  0  0  4           0  0  0
   -2.1387   -0.0452    5.3858 C   0  0  0  0  0  4           0  0  0
   -1.5917   -0.0287    4.0225 C   0  0  0  0  0  4           0  0  0
   -3.1900   -0.8937    5.7956 C   0  0  0  0  0  4           0  0  0
   -0.5416   -0.0000    1.3969 C   0  0  0  0  0  4           0  0  0
   -1.5832    0.8064    6.3623 C   0  0  0  0  0  4           0  0  0
   -0.5222   -0.8642    3.6683 C   0  0  0  0  0  4           0  0  0
   -2.1293    0.8200    3.0435 C   0  0  0  0  0  4           0  0  0
   -3.6564   -0.8893    7.1194 C   0  0  0  0  0  4           0  0  0
   -0.0050   -0.8520    2.3698 C   0  0  0  0  0  4           0  0  0
   -1.6116    0.8327    1.7455 C   0  0  0  0  0  4           0  0  0
   -2.0466    0.8094    7.6811 C   0  0  0  0  0  4           0  0  0
   -3.0805   -0.0396    8.0594 C   0  0  0  0  0  4           0  0  0
    1.8766    2.4921    0.0638 C   0  0  0  0  0  4           0  0  0
   -3.8952   -1.7631    4.8384 C   0  0  0  0  0  4           0  0  0
    0.0000   -0.0000    0.0000 C   0  0  0  0  0  4           0  0  0
    1.7675   -2.5238   -0.0449 C   0  0  0  0  0  4           0  0  0
    1.5198   -3.0598   -1.4531 C   0  0  0  0  0  4           0  0  0
    1.0127   -4.5015   -1.4963 C   0  0  0  0  0  4           0  0  0
    0.7874   -4.9713   -2.9245 C   0  0  0  0  0  4           0  0  0
  1  8  1  0     0  0
  2 23  2  0     0  0
  3 24  2  0     0  0
  4 23  1  0     0  0
  5 24  1  0     0  0
  6  9  1  0     0  0
  6 10  1  0     0  0
  6 25  1  0     0  0
  7  8  1  0     0  0
  7  9  2  0     0  0
  8 10  2  0     0  0
  9 23  1  0     0  0
 10 26  1  0     0  0
 11 12  1  0     0  0
 11 13  1  0     0  0
 11 15  2  0     0  0
 12 16  2  0     0  0
 12 17  1  0     0  0
 13 18  2  0     0  0
 13 24  1  0     0  0
 14 19  2  0     0  0
 14 20  1  0     0  0
 14 25  1  0     0  0
 15 21  1  0     0  0
 16 19  1  0     0  0
 17 20  2  0     0  0
 18 22  1  0     0  0
 21 22  2  0     0  0
 26 27  1  0     0  0
 27 28  1  0     0  0
 28 29  1  0     0  0
M  END
> <standard_type>
pIC50

> <# Confs.>
25

> <canonical_smiles>
ClC(N=C1C(O)=O)=C(CCCC)N1CC2=CC=C(C3=CC=CC=C3C(O)=O)C=C2

> <standard_relation>
=

> <Publication_ID>
nan

> <predicted_activity_value>
7.1249387366083

> <actual_activity_value>
7.036212172654444

> <Compound>
5

> <standard_units>
nM

> hash
11575724701589501878

$$$$
5_
XXILIB    08252103443D 0   0.00000     0.00000

 29 31  0     1  0            999 V2000
    4.9955    1.5038    0.1744 Cl  0  0  0  0  0  1           0  0  0
    0.7306   -2.9164   -0.1301 O   0  0  0  0  0  2           0  0  0
   -4.5661    1.0197    3.9421 O   0  0  0  0  0  2           0  0  0
    2.9702   -3.2989   -0.0415 O   0  0  0  0  0  2           0  0  0
   -5.2429   -1.0100    4.7280 O   0  0  0  0  0  2           0  0  0
    1.4518   -0.0000    0.0000 N   0  0  0  0  0  3           0  0  0
    3.5373   -0.7554    0.0626 N   0  0  0  0  0  3           0  0  0
    3.5445    0.6136    0.0905 C   0  0  0  0  0  4           0  0  0
    2.2693   -1.1158    0.0000 C   0  0  0  0  0  4           0  0  0
    2.2598    1.1192    0.0452 C   0  0  0  0  0  4           0  0  0
   -2.0338   -0.0014    5.4264 C   0  0  0  0  0  4           0  0  0
   -1.5250   -0.0009    4.0483 C   0  0  0  0  0  4           0  0  0
   -3.4075   -0.0137    5.7521 C   0  0  0  0  0  4           0  0  0
   -0.5416    0.0000    1.3969 C   0  0  0  0  0  4           0  0  0
   -1.1196   -0.0156    6.4994 C   0  0  0  0  0  4           0  0  0
   -1.2881    1.2045    3.3713 C   0  0  0  0  0  4           0  0  0
   -1.2611   -1.2057    3.3801 C   0  0  0  0  0  4           0  0  0
   -3.8400   -0.0424    7.0870 C   0  0  0  0  0  4           0  0  0
   -0.7994    1.2049    2.0619 C   0  0  0  0  0  4           0  0  0
   -0.7733   -1.2051    2.0705 C   0  0  0  0  0  4           0  0  0
   -1.5504   -0.0461    7.8289 C   0  0  0  0  0  4           0  0  0
   -2.9094   -0.0620    8.1219 C   0  0  0  0  0  4           0  0  0
    1.8766   -2.4921   -0.0638 C   0  0  0  0  0  4           0  0  0
   -4.4460    0.0816    4.7120 C   0  0  0  0  0  4           0  0  0
    0.0000    0.0000    0.0000 C   0  0  0  0  0  4           0  0  0
    1.7675    2.5238    0.0449 C   0  0  0  0  0  4           0  0  0
    1.6267    3.0965   -1.3636 C   0  0  0  0  0  4           0  0  0
    1.1229    4.5394   -1.4076 C   0  0  0  0  0  4           0  0  0
    1.0059    5.0464   -2.8360 C   0  0  0  0  0  4           0  0  0
  1  8  1  0     0  0
  2 23  2  0     0  0
  3 24  2  0     0  0
  4 23  1  0     0  0
  5 24  1  0     0  0
  6  9  1  0     0  0
  6 10  1  0     0  0
  6 25  1  0     0  0
  7  8  1  0     0  0
  7  9  2  0     0  0
  8 10  2  0     0  0
  9 23  1  0     0  0
 10 26  1  0     0  0
 11 12  1  0     0  0
 11 13  1  0     0  0
 11 15  2  0     0  0
 12 16  2  0     0  0
 12 17  1  0     0  0
 13 18  2  0     0  0
 13 24  1  0     0  0
 14 19  2  0     0  0
 14 20  1  0     0  0
 14 25  1  0     0  0
 15 21  1  0     0  0
 16 19  1  0     0  0
 17 20  2  0     0  0
 18 22  1  0     0  0
 21 22  2  0     0  0
 26 27  1  0     0  0
 27 28  1  0     0  0
 28 29  1  0     0  0
M  END
> <standard_type>
pIC50

> <# Confs.>
25

> <canonical_smiles>
ClC(N=C1C(O)=O)=C(CCCC)N1CC2=CC=C(C3=CC=CC=C3C(O)=O)C=C2

> <standard_relation>
=

> <Publication_ID>
nan

> <predicted_activity_value>
7.1249387366083

> <actual_activity_value>
7.036212172654444

> <Compound>
5

> <standard_units>
nM

> hash
11575724701589501878

$$$$
5_
XXILIB    08252103443D 0   0.00000     0.00000

 29 31  0     1  0            999 V2000
    4.9955   -1.5038   -0.1744 Cl  0  0  0  0  0  1           0  0  0
    0.7306    2.9164    0.1301 O   0  0  0  0  0  2           0  0  0
   -4.3015    1.6229    3.8086 O   0  0  0  0  0  2           0  0  0
    2.9702    3.2989    0.0415 O   0  0  0  0  0  2           0  0  0
   -3.6643    3.1254    5.3998 O   0  0  0  0  0  2           0  0  0
    1.4518    0.0000   -0.0000 N   0  0  0  0  0  3           0  0  0
    3.5373    0.7554   -0.0626 N   0  0  0  0  0  3           0  0  0
    3.5445   -0.6136   -0.0905 C   0  0  0  0  0  4           0  0  0
    2.2693    1.1158    0.0000 C   0  0  0  0  0  4           0  0  0
    2.2598   -1.1192   -0.0452 C   0  0  0  0  0  4           0  0  0
   -2.1368    0.0472    5.3865 C   0  0  0  0  0  4           0  0  0
   -1.5905    0.0300    4.0229 C   0  0  0  0  0  4           0  0  0
   -3.2035    0.8792    5.7904 C   0  0  0  0  0  4           0  0  0
   -0.5416    0.0000    1.3969 C   0  0  0  0  0  4           0  0  0
   -1.5994   -0.8237    6.3561 C   0  0  0  0  0  4           0  0  0
   -2.1104   -0.8392    3.0525 C   0  0  0  0  0  4           0  0  0
   -0.5395    0.8852    3.6599 C   0  0  0  0  0  4           0  0  0
   -3.7066    0.8356    7.1000 C   0  0  0  0  0  4           0  0  0
   -1.5938   -0.8520    1.7539 C   0  0  0  0  0  4           0  0  0
   -0.0225    0.8716    2.3616 C   0  0  0  0  0  4           0  0  0
   -2.1017   -0.8685    7.6598 C   0  0  0  0  0  4           0  0  0
   -3.1559   -0.0412    8.0302 C   0  0  0  0  0  4           0  0  0
    1.8766    2.4921    0.0638 C   0  0  0  0  0  4           0  0  0
   -3.7836    1.8827    4.8816 C   0  0  0  0  0  4           0  0  0
   -0.0000    0.0000    0.0000 C   0  0  0  0  0  4           0  0  0
    1.7675   -2.5238   -0.0449 C   0  0  0  0  0  4           0  0  0
    1.5198   -3.0598   -1.4531 C   0  0  0  0  0  4           0  0  0
    1.0127   -4.5015   -1.4963 C   0  0  0  0  0  4           0  0  0
    0.7874   -4.9713   -2.9245 C   0  0  0  0  0  4           0  0  0
  1  8  1  0     0  0
  2 23  2  0     0  0
  3 24  2  0     0  0
  4 23  1  0     0  0
  5 24  1  0     0  0
  6  9  1  0     0  0
  6 10  1  0     0  0
  6 25  1  0     0  0
  7  8  1  0     0  0
  7  9  2  0     0  0
  8 10  2  0     0  0
  9 23  1  0     0  0
 10 26  1  0     0  0
 11 12  1  0     0  0
 11 13  1  0     0  0
 11 15  2  0     0  0
 12 16  2  0     0  0
 12 17  1  0     0  0
 13 18  2  0     0  0
 13 24  1  0     0  0
 14 19  2  0     0  0
 14 20  1  0     0  0
 14 25  1  0     0  0
 15 21  1  0     0  0
 16 19  1  0     0  0
 17 20  2  0     0  0
 18 22  1  0     0  0
 21 22  2  0     0  0
 26 27  1  0     0  0
 27 28  1  0     0  0
 28 29  1  0     0  0
M  END
> <standard_type>
pIC50

> <# Confs.>
25

> <canonical_smiles>
ClC(N=C1C(O)=O)=C(CCCC)N1CC2=CC=C(C3=CC=CC=C3C(O)=O)C=C2

> <standard_relation>
=

> <Publication_ID>
nan

> <predicted_activity_value>
7.1249387366083

> <actual_activity_value>
7.036212172654444

> <Compound>
5

> <standard_units>
nM

> hash
11575724701589501878

$$$$
5_
XXILIB    08252103443D 0   0.00000     0.00000

 29 31  0     1  0            999 V2000
    4.9955    1.5038    0.1744 Cl  0  0  0  0  0  1           0  0  0
    0.7306   -2.9164   -0.1301 O   0  0  0  0  0  2           0  0  0
   -4.5076   -1.3605    3.8638 O   0  0  0  0  0  2           0  0  0
    2.9702   -3.2989   -0.0415 O   0  0  0  0  0  2           0  0  0
   -3.7690   -3.0628    5.1874 O   0  0  0  0  0  2           0  0  0
    1.4518   -0.0000    0.0000 N   0  0  0  0  0  3           0  0  0
    3.5373   -0.7554    0.0626 N   0  0  0  0  0  3           0  0  0
    3.5445    0.6136    0.0905 C   0  0  0  0  0  4           0  0  0
    2.2693   -1.1158    0.0000 C   0  0  0  0  0  4           0  0  0
    2.2598    1.1192    0.0452 C   0  0  0  0  0  4           0  0  0
   -2.1387   -0.0452    5.3858 C   0  0  0  0  0  4           0  0  0
   -1.5917   -0.0287    4.0225 C   0  0  0  0  0  4           0  0  0
   -3.1900   -0.8937    5.7956 C   0  0  0  0  0  4           0  0  0
   -0.5416   -0.0000    1.3969 C   0  0  0  0  0  4           0  0  0
   -1.5832    0.8064    6.3623 C   0  0  0  0  0  4           0  0  0
   -0.5222   -0.8642    3.6683 C   0  0  0  0  0  4           0  0  0
   -2.1293    0.8200    3.0435 C   0  0  0  0  0  4           0  0  0
   -3.6564   -0.8893    7.1194 C   0  0  0  0  0  4           0  0  0
   -0.0050   -0.8520    2.3698 C   0  0  0  0  0  4           0  0  0
   -1.6116    0.8327    1.7455 C   0  0  0  0  0  4           0  0  0
   -2.0466    0.8094    7.6811 C   0  0  0  0  0  4           0  0  0
   -3.0805   -0.0396    8.0594 C   0  0  0  0  0  4           0  0  0
    1.8766   -2.4921   -0.0638 C   0  0  0  0  0  4           0  0  0
   -3.8952   -1.7631    4.8384 C   0  0  0  0  0  4           0  0  0
    0.0000   -0.0000    0.0000 C   0  0  0  0  0  4           0  0  0
    1.7675    2.5238    0.0449 C   0  0  0  0  0  4           0  0  0
    1.5198    3.0598    1.4531 C   0  0  0  0  0  4           0  0  0
    2.7589    3.0686    2.3489 C   0  0  0  0  0  4           0  0  0
    2.4431    3.6126    3.7329 C   0  0  0  0  0  4           0  0  0
  1  8  1  0     0  0
  2 23  2  0     0  0
  3 24  2  0     0  0
  4 23  1  0     0  0
  5 24  1  0     0  0
  6  9  1  0     0  0
  6 10  1  0     0  0
  6 25  1  0     0  0
  7  8  1  0     0  0
  7  9  2  0     0  0
  8 10  2  0     0  0
  9 23  1  0     0  0
 10 26  1  0     0  0
 11 12  1  0     0  0
 11 13  1  0     0  0
 11 15  2  0     0  0
 12 16  2  0     0  0
 12 17  1  0     0  0
 13 18  2  0     0  0
 13 24  1  0     0  0
 14 19  2  0     0  0
 14 20  1  0     0  0
 14 25  1  0     0  0
 15 21  1  0     0  0
 16 19  1  0     0  0
 17 20  2  0     0  0
 18 22  1  0     0  0
 21 22  2  0     0  0
 26 27  1  0     0  0
 27 28  1  0     0  0
 28 29  1  0     0  0
M  END
> <standard_type>
pIC50

> <# Confs.>
25

> <canonical_smiles>
ClC(N=C1C(O)=O)=C(CCCC)N1CC2=CC=C(C3=CC=CC=C3C(O)=O)C=C2

> <standard_relation>
=

> <Publication_ID>
nan

> <predicted_activity_value>
7.1249387366083

> <actual_activity_value>
7.036212172654444

> <Compound>
5

> <standard_units>
nM

> hash
11575724701589501878

$$$$
5_
XXILIB    08252103443D 0   0.00000     0.00000

 29 31  0     1  0            999 V2000
    4.9955    1.5038    0.1744 Cl  0  0  0  0  0  1           0  0  0
    0.7306   -2.9164   -0.1301 O   0  0  0  0  0  2           0  0  0
   -3.5457   -2.5661    4.2352 O   0  0  0  0  0  2           0  0  0
    2.9702   -3.2989   -0.0415 O   0  0  0  0  0  2           0  0  0
   -2.1720   -3.4526    5.8234 O   0  0  0  0  0  2           0  0  0
    1.4518   -0.0000    0.0000 N   0  0  0  0  0  3           0  0  0
    3.5373   -0.7554    0.0626 N   0  0  0  0  0  3           0  0  0
    3.5445    0.6136    0.0905 C   0  0  0  0  0  4           0  0  0
    2.2693   -1.1158    0.0000 C   0  0  0  0  0  4           0  0  0
    2.2598    1.1192    0.0452 C   0  0  0  0  0  4           0  0  0
   -2.1387   -0.0452    5.3858 C   0  0  0  0  0  4           0  0  0
   -1.5917   -0.0287    4.0225 C   0  0  0  0  0  4           0  0  0
   -2.6967   -1.1927    5.9900 C   0  0  0  0  0  4           0  0  0
   -0.5416   -0.0000    1.3969 C   0  0  0  0  0  4           0  0  0
   -2.0927    1.1308    6.1618 C   0  0  0  0  0  4           0  0  0
   -0.5222   -0.8642    3.6683 C   0  0  0  0  0  4           0  0  0
   -2.1293    0.8200    3.0435 C   0  0  0  0  0  4           0  0  0
   -3.1800   -1.1610    7.3073 C   0  0  0  0  0  4           0  0  0
   -0.0050   -0.8520    2.3698 C   0  0  0  0  0  4           0  0  0
   -1.6116    0.8327    1.7455 C   0  0  0  0  0  4           0  0  0
   -2.5724    1.1618    7.4744 C   0  0  0  0  0  4           0  0  0
   -3.1132    0.0161    8.0470 C   0  0  0  0  0  4           0  0  0
    1.8766   -2.4921   -0.0638 C   0  0  0  0  0  4           0  0  0
   -2.8679   -2.4501    5.2423 C   0  0  0  0  0  4           0  0  0
    0.0000   -0.0000    0.0000 C   0  0  0  0  0  4           0  0  0
    1.7675    2.5238    0.0449 C   0  0  0  0  0  4           0  0  0
    1.6267    3.0965   -1.3636 C   0  0  0  0  0  4           0  0  0
    1.1229    4.5394   -1.4076 C   0  0  0  0  0  4           0  0  0
   -0.2493    4.6711   -0.7665 C   0  0  0  0  0  4           0  0  0
  1  8  1  0     0  0
  2 23  2  0     0  0
  3 24  2  0     0  0
  4 23  1  0     0  0
  5 24  1  0     0  0
  6  9  1  0     0  0
  6 10  1  0     0  0
  6 25  1  0     0  0
  7  8  1  0     0  0
  7  9  2  0     0  0
  8 10  2  0     0  0
  9 23  1  0     0  0
 10 26  1  0     0  0
 11 12  1  0     0  0
 11 13  1  0     0  0
 11 15  2  0     0  0
 12 16  2  0     0  0
 12 17  1  0     0  0
 13 18  2  0     0  0
 13 24  1  0     0  0
 14 19  2  0     0  0
 14 20  1  0     0  0
 14 25  1  0     0  0
 15 21  1  0     0  0
 16 19  1  0     0  0
 17 20  2  0     0  0
 18 22  1  0     0  0
 21 22  2  0     0  0
 26 27  1  0     0  0
 27 28  1  0     0  0
 28 29  1  0     0  0
M  END
> <standard_type>
pIC50

> <# Confs.>
25

> <canonical_smiles>
ClC(N=C1C(O)=O)=C(CCCC)N1CC2=CC=C(C3=CC=CC=C3C(O)=O)C=C2

> <standard_relation>
=

> <Publication_ID>
nan

> <predicted_activity_value>
7.1249387366083

> <actual_activity_value>
7.036212172654444

> <Compound>
5

> <standard_units>
nM

> hash
11575724701589501878

$$$$
5_
XXILIB    08252103443D 0   0.00000     0.00000

 29 31  0     1  0            999 V2000
    4.9955    1.5038    0.1744 Cl  0  0  0  0  0  1           0  0  0
    0.7306   -2.9164   -0.1301 O   0  0  0  0  0  2           0  0  0
    0.6142    1.2817    5.9506 O   0  0  0  0  0  2           0  0  0
    2.9702   -3.2989   -0.0415 O   0  0  0  0  0  2           0  0  0
   -0.8485    2.9622    6.4318 O   0  0  0  0  0  2           0  0  0
    1.4518   -0.0000    0.0000 N   0  0  0  0  0  3           0  0  0
    3.5373   -0.7554    0.0626 N   0  0  0  0  0  3           0  0  0
    3.5445    0.6136    0.0905 C   0  0  0  0  0  4           0  0  0
    2.2693   -1.1158    0.0000 C   0  0  0  0  0  4           0  0  0
    2.2598    1.1192    0.0452 C   0  0  0  0  0  4           0  0  0
   -2.1387   -0.0452    5.3858 C   0  0  0  0  0  4           0  0  0
   -1.5917   -0.0287    4.0225 C   0  0  0  0  0  4           0  0  0
   -1.6692    0.7859    6.4260 C   0  0  0  0  0  4           0  0  0
   -0.5416   -0.0000    1.3969 C   0  0  0  0  0  4           0  0  0
   -3.2080   -0.9122    5.6897 C   0  0  0  0  0  4           0  0  0
   -0.5222   -0.8642    3.6683 C   0  0  0  0  0  4           0  0  0
   -2.1293    0.8200    3.0435 C   0  0  0  0  0  4           0  0  0
   -2.2469    0.7502    7.7047 C   0  0  0  0  0  4           0  0  0
   -0.0050   -0.8520    2.3698 C   0  0  0  0  0  4           0  0  0
   -1.6116    0.8327    1.7455 C   0  0  0  0  0  4           0  0  0
   -3.7844   -0.9464    6.9627 C   0  0  0  0  0  4           0  0  0
   -3.3057   -0.1141    7.9682 C   0  0  0  0  0  4           0  0  0
    1.8766   -2.4921   -0.0638 C   0  0  0  0  0  4           0  0  0
   -0.5053    1.6691    6.2398 C   0  0  0  0  0  4           0  0  0
    0.0000   -0.0000    0.0000 C   0  0  0  0  0  4           0  0  0
    1.7675    2.5238    0.0449 C   0  0  0  0  0  4           0  0  0
    1.6267    3.0965   -1.3636 C   0  0  0  0  0  4           0  0  0
    2.9300    3.1274   -2.1624 C   0  0  0  0  0  4           0  0  0
    2.7195    3.7075   -3.5518 C   0  0  0  0  0  4           0  0  0
  1  8  1  0     0  0
  2 23  2  0     0  0
  3 24  2  0     0  0
  4 23  1  0     0  0
  5 24  1  0     0  0
  6  9  1  0     0  0
  6 10  1  0     0  0
  6 25  1  0     0  0
  7  8  1  0     0  0
  7  9  2  0     0  0
  8 10  2  0     0  0
  9 23  1  0     0  0
 10 26  1  0     0  0
 11 12  1  0     0  0
 11 13  1  0     0  0
 11 15  2  0     0  0
 12 16  2  0     0  0
 12 17  1  0     0  0
 13 18  2  0     0  0
 13 24  1  0     0  0
 14 19  2  0     0  0
 14 20  1  0     0  0
 14 25  1  0     0  0
 15 21  1  0     0  0
 16 19  1  0     0  0
 17 20  2  0     0  0
 18 22  1  0     0  0
 21 22  2  0     0  0
 26 27  1  0     0  0
 27 28  1  0     0  0
 28 29  1  0     0  0
M  END
> <standard_type>
pIC50

> <# Confs.>
25

> <canonical_smiles>
ClC(N=C1C(O)=O)=C(CCCC)N1CC2=CC=C(C3=CC=CC=C3C(O)=O)C=C2

> <standard_relation>
=

> <Publication_ID>
nan

> <predicted_activity_value>
7.1249387366083

> <actual_activity_value>
7.036212172654444

> <Compound>
5

> <standard_units>
nM

> hash
11575724701589501878

$$$$
5_
XXILIB    08252103443D 0   0.00000     0.00000

 29 31  0     1  0            999 V2000
    4.9955   -1.5038   -0.1744 Cl  0  0  0  0  0  1           0  0  0
    0.7306    2.9164    0.1301 O   0  0  0  0  0  2           0  0  0
   -4.3015    1.6229    3.8086 O   0  0  0  0  0  2           0  0  0
    2.9702    3.2989    0.0415 O   0  0  0  0  0  2           0  0  0
   -3.6643    3.1254    5.3998 O   0  0  0  0  0  2           0  0  0
    1.4518    0.0000   -0.0000 N   0  0  0  0  0  3           0  0  0
    3.5373    0.7554   -0.0626 N   0  0  0  0  0  3           0  0  0
    3.5445   -0.6136   -0.0905 C   0  0  0  0  0  4           0  0  0
    2.2693    1.1158    0.0000 C   0  0  0  0  0  4           0  0  0
    2.2598   -1.1192   -0.0452 C   0  0  0  0  0  4           0  0  0
   -2.1368    0.0472    5.3865 C   0  0  0  0  0  4           0  0  0
   -1.5905    0.0300    4.0229 C   0  0  0  0  0  4           0  0  0
   -3.2035    0.8792    5.7904 C   0  0  0  0  0  4           0  0  0
   -0.5416    0.0000    1.3969 C   0  0  0  0  0  4           0  0  0
   -1.5994   -0.8237    6.3561 C   0  0  0  0  0  4           0  0  0
   -2.1104   -0.8392    3.0525 C   0  0  0  0  0  4           0  0  0
   -0.5395    0.8852    3.6599 C   0  0  0  0  0  4           0  0  0
   -3.7066    0.8356    7.1000 C   0  0  0  0  0  4           0  0  0
   -1.5938   -0.8520    1.7539 C   0  0  0  0  0  4           0  0  0
   -0.0225    0.8716    2.3616 C   0  0  0  0  0  4           0  0  0
   -2.1017   -0.8685    7.6598 C   0  0  0  0  0  4           0  0  0
   -3.1559   -0.0412    8.0302 C   0  0  0  0  0  4           0  0  0
    1.8766    2.4921    0.0638 C   0  0  0  0  0  4           0  0  0
   -3.7836    1.8827    4.8816 C   0  0  0  0  0  4           0  0  0
   -0.0000    0.0000    0.0000 C   0  0  0  0  0  4           0  0  0
    1.7675   -2.5238   -0.0449 C   0  0  0  0  0  4           0  0  0
    1.6267   -3.0965    1.3636 C   0  0  0  0  0  4           0  0  0
    1.1229   -4.5394    1.4076 C   0  0  0  0  0  4           0  0  0
    1.0059   -5.0464    2.8360 C   0  0  0  0  0  4           0  0  0
  1  8  1  0     0  0
  2 23  2  0     0  0
  3 24  2  0     0  0
  4 23  1  0     0  0
  5 24  1  0     0  0
  6  9  1  0     0  0
  6 10  1  0     0  0
  6 25  1  0     0  0
  7  8  1  0     0  0
  7  9  2  0     0  0
  8 10  2  0     0  0
  9 23  1  0     0  0
 10 26  1  0     0  0
 11 12  1  0     0  0
 11 13  1  0     0  0
 11 15  2  0     0  0
 12 16  2  0     0  0
 12 17  1  0     0  0
 13 18  2  0     0  0
 13 24  1  0     0  0
 14 19  2  0     0  0
 14 20  1  0     0  0
 14 25  1  0     0  0
 15 21  1  0     0  0
 16 19  1  0     0  0
 17 20  2  0     0  0
 18 22  1  0     0  0
 21 22  2  0     0  0
 26 27  1  0     0  0
 27 28  1  0     0  0
 28 29  1  0     0  0
M  END
> <standard_type>
pIC50

> <# Confs.>
25

> <canonical_smiles>
ClC(N=C1C(O)=O)=C(CCCC)N1CC2=CC=C(C3=CC=CC=C3C(O)=O)C=C2

> <standard_relation>
=

> <Publication_ID>
nan

> <predicted_activity_value>
7.1249387366083

> <actual_activity_value>
7.036212172654444

> <Compound>
5

> <standard_units>
nM

> hash
11575724701589501878

$$$$
5_
XXILIB    08252103443D 0   0.00000     0.00000

 29 31  0     1  0            999 V2000
    4.9955   -1.5038   -0.1744 Cl  0  0  0  0  0  1           0  0  0
    0.8351    2.9692   -0.3667 O   0  0  0  0  0  2           0  0  0
    0.2005    2.3429    6.0439 O   0  0  0  0  0  2           0  0  0
    2.8350    3.2306    0.6832 O   0  0  0  0  0  2           0  0  0
    0.9451    0.2582    6.5868 O   0  0  0  0  0  2           0  0  0
    1.4518    0.0000   -0.0000 N   0  0  0  0  0  3           0  0  0
    3.5373    0.7554   -0.0626 N   0  0  0  0  0  3           0  0  0
    3.5445   -0.6136   -0.0905 C   0  0  0  0  0  4           0  0  0
    2.2693    1.1158    0.0000 C   0  0  0  0  0  4           0  0  0
    2.2598   -1.1192   -0.0452 C   0  0  0  0  0  4           0  0  0
   -2.0338   -0.0014    5.4264 C   0  0  0  0  0  4           0  0  0
   -1.5250   -0.0009    4.0483 C   0  0  0  0  0  4           0  0  0
   -1.3548    0.5966    6.5102 C   0  0  0  0  0  4           0  0  0
   -0.5416    0.0000    1.3969 C   0  0  0  0  0  4           0  0  0
   -3.2780   -0.6043    5.7023 C   0  0  0  0  0  4           0  0  0
   -1.2881    1.2045    3.3713 C   0  0  0  0  0  4           0  0  0
   -1.2611   -1.2057    3.3801 C   0  0  0  0  0  4           0  0  0
   -1.8998    0.5923    7.8036 C   0  0  0  0  0  4           0  0  0
   -0.7994    1.2049    2.0619 C   0  0  0  0  0  4           0  0  0
   -0.7733   -1.2051    2.0705 C   0  0  0  0  0  4           0  0  0
   -3.8214   -0.6069    6.9901 C   0  0  0  0  0  4           0  0  0
   -3.1338   -0.0070    8.0390 C   0  0  0  0  0  4           0  0  0
    1.8766    2.4921    0.0638 C   0  0  0  0  0  4           0  0  0
   -0.0128    1.1817    6.3492 C   0  0  0  0  0  4           0  0  0
    0.0000    0.0000    0.0000 C   0  0  0  0  0  4           0  0  0
    1.7675   -2.5238   -0.0449 C   0  0  0  0  0  4           0  0  0
    1.5198   -3.0598   -1.4531 C   0  0  0  0  0  4           0  0  0
    1.0127   -4.5015   -1.4963 C   0  0  0  0  0  4           0  0  0
    0.7874   -4.9713   -2.9245 C   0  0  0  0  0  4           0  0  0
  1  8  1  0     0  0
  2 23  2  0     0  0
  3 24  2  0     0  0
  4 23  1  0     0  0
  5 24  1  0     0  0
  6  9  1  0     0  0
  6 10  1  0     0  0
  6 25  1  0     0  0
  7  8  1  0     0  0
  7  9  2  0     0  0
  8 10  2  0     0  0
  9 23  1  0     0  0
 10 26  1  0     0  0
 11 12  1  0     0  0
 11 13  1  0     0  0
 11 15  2  0     0  0
 12 16  2  0     0  0
 12 17  1  0     0  0
 13 18  2  0     0  0
 13 24  1  0     0  0
 14 19  2  0     0  0
 14 20  1  0     0  0
 14 25  1  0     0  0
 15 21  1  0     0  0
 16 19  1  0     0  0
 17 20  2  0     0  0
 18 22  1  0     0  0
 21 22  2  0     0  0
 26 27  1  0     0  0
 27 28  1  0     0  0
 28 29  1  0     0  0
M  END
> <standard_type>
pIC50

> <# Confs.>
25

> <canonical_smiles>
ClC(N=C1C(O)=O)=C(CCCC)N1CC2=CC=C(C3=CC=CC=C3C(O)=O)C=C2

> <standard_relation>
=

> <Publication_ID>
nan

> <predicted_activity_value>
7.1249387366083

> <actual_activity_value>
7.036212172654444

> <Compound>
5

> <standard_units>
nM

> hash
11575724701589501878

$$$$
5_
XXILIB    08252103443D 0   0.00000     0.00000

 29 31  0     1  0            999 V2000
    4.9955   -1.5038   -0.1744 Cl  0  0  0  0  0  1           0  0  0
    0.7306    2.9164    0.1301 O   0  0  0  0  0  2           0  0  0
   -0.7303   -2.7238    5.4293 O   0  0  0  0  0  2           0  0  0
    2.9702    3.2989    0.0415 O   0  0  0  0  0  2           0  0  0
    0.4832   -1.5339    6.9481 O   0  0  0  0  0  2           0  0  0
    1.4518    0.0000   -0.0000 N   0  0  0  0  0  3           0  0  0
    3.5373    0.7554   -0.0626 N   0  0  0  0  0  3           0  0  0
    3.5445   -0.6136   -0.0905 C   0  0  0  0  0  4           0  0  0
    2.2693    1.1158    0.0000 C   0  0  0  0  0  4           0  0  0
    2.2598   -1.1192   -0.0452 C   0  0  0  0  0  4           0  0  0
   -2.1368    0.0472    5.3865 C   0  0  0  0  0  4           0  0  0
   -1.5905    0.0300    4.0229 C   0  0  0  0  0  4           0  0  0
   -1.6512   -0.7666    6.4330 C   0  0  0  0  0  4           0  0  0
   -0.5416    0.0000    1.3969 C   0  0  0  0  0  4           0  0  0
   -3.1874    0.9342    5.6977 C   0  0  0  0  0  4           0  0  0
   -2.1104   -0.8392    3.0525 C   0  0  0  0  0  4           0  0  0
   -0.5395    0.8852    3.6599 C   0  0  0  0  0  4           0  0  0
   -2.1910   -0.6902    7.7264 C   0  0  0  0  0  4           0  0  0
   -1.5938   -0.8520    1.7539 C   0  0  0  0  0  4           0  0  0
   -0.0225    0.8716    2.3616 C   0  0  0  0  0  4           0  0  0
   -3.7237    1.0116    6.9863 C   0  0  0  0  0  4           0  0  0
   -3.2240    0.2017    7.9999 C   0  0  0  0  0  4           0  0  0
    1.8766    2.4921    0.0638 C   0  0  0  0  0  4           0  0  0
   -0.6129   -1.7845    6.1981 C   0  0  0  0  0  4           0  0  0
   -0.0000    0.0000    0.0000 C   0  0  0  0  0  4           0  0  0
    1.7675   -2.5238   -0.0449 C   0  0  0  0  0  4           0  0  0
    1.6267   -3.0965    1.3636 C   0  0  0  0  0  4           0  0  0
    2.9300   -3.1274    2.1624 C   0  0  0  0  0  4           0  0  0
    2.7195   -3.7075    3.5518 C   0  0  0  0  0  4           0  0  0
  1  8  1  0     0  0
  2 23  2  0     0  0
  3 24  2  0     0  0
  4 23  1  0     0  0
  5 24  1  0     0  0
  6  9  1  0     0  0
  6 10  1  0     0  0
  6 25  1  0     0  0
  7  8  1  0     0  0
  7  9  2  0     0  0
  8 10  2  0     0  0
  9 23  1  0     0  0
 10 26  1  0     0  0
 11 12  1  0     0  0
 11 13  1  0     0  0
 11 15  2  0     0  0
 12 16  2  0     0  0
 12 17  1  0     0  0
 13 18  2  0     0  0
 13 24  1  0     0  0
 14 19  2  0     0  0
 14 20  1  0     0  0
 14 25  1  0     0  0
 15 21  1  0     0  0
 16 19  1  0     0  0
 17 20  2  0     0  0
 18 22  1  0     0  0
 21 22  2  0     0  0
 26 27  1  0     0  0
 27 28  1  0     0  0
 28 29  1  0     0  0
M  END
> <standard_type>
pIC50

> <# Confs.>
25

> <canonical_smiles>
ClC(N=C1C(O)=O)=C(CCCC)N1CC2=CC=C(C3=CC=CC=C3C(O)=O)C=C2

> <standard_relation>
=

> <Publication_ID>
nan

> <predicted_activity_value>
7.1249387366083

> <actual_activity_value>
7.036212172654444

> <Compound>
5

> <standard_units>
nM

> hash
11575724701589501878

$$$$
5_
XXILIB    08252103443D 0   0.00000     0.00000

 29 31  0     1  0            999 V2000
    4.9955    1.1866   -0.9400 Cl  0  0  0  0  0  1           0  0  0
    0.8799   -2.5133    1.6394 O   0  0  0  0  0  2           0  0  0
    0.5047   -1.5435    5.7740 O   0  0  0  0  0  2           0  0  0
    2.7776   -1.8983    2.7306 O   0  0  0  0  0  2           0  0  0
   -1.0677   -3.0166    6.5174 O   0  0  0  0  0  2           0  0  0
    1.4518   -0.0000    0.0000 N   0  0  0  0  0  3           0  0  0
    3.5373   -0.4899    0.5784 N   0  0  0  0  0  3           0  0  0
    3.5445    0.4979   -0.3699 C   0  0  0  0  0  4           0  0  0
    2.2693   -0.7890    0.7890 C   0  0  0  0  0  4           0  0  0
    2.2598    0.8234   -0.7594 C   0  0  0  0  0  4           0  0  0
   -2.1368    0.0472    5.3865 C   0  0  0  0  0  4           0  0  0
   -1.5905    0.0300    4.0229 C   0  0  0  0  0  4           0  0  0
   -1.6512   -0.7666    6.4330 C   0  0  0  0  0  4           0  0  0
   -0.5416    0.0000    1.3969 C   0  0  0  0  0  4           0  0  0
   -3.1874    0.9342    5.6977 C   0  0  0  0  0  4           0  0  0
   -2.1104   -0.8392    3.0525 C   0  0  0  0  0  4           0  0  0
   -0.5395    0.8852    3.6599 C   0  0  0  0  0  4           0  0  0
   -2.1910   -0.6902    7.7264 C   0  0  0  0  0  4           0  0  0
   -1.5938   -0.8520    1.7539 C   0  0  0  0  0  4           0  0  0
   -0.0225    0.8716    2.3616 C   0  0  0  0  0  4           0  0  0
   -3.7237    1.0116    6.9863 C   0  0  0  0  0  4           0  0  0
   -3.2240    0.2017    7.9999 C   0  0  0  0  0  4           0  0  0
    1.8766   -1.8073    1.7171 C   0  0  0  0  0  4           0  0  0
   -0.6129   -1.7845    6.1981 C   0  0  0  0  0  4           0  0  0
   -0.0000    0.0000    0.0000 C   0  0  0  0  0  4           0  0  0
    1.7675    1.8163   -1.7528 C   0  0  0  0  0  4           0  0  0
    1.5198    3.1911   -1.1361 C   0  0  0  0  0  4           0  0  0
    1.0127    4.2411   -2.1250 C   0  0  0  0  0  4           0  0  0
    0.7874    5.5832   -1.4474 C   0  0  0  0  0  4           0  0  0
  1  8  1  0     0  0
  2 23  2  0     0  0
  3 24  2  0     0  0
  4 23  1  0     0  0
  5 24  1  0     0  0
  6  9  1  0     0  0
  6 10  1  0     0  0
  6 25  1  0     0  0
  7  8  1  0     0  0
  7  9  2  0     0  0
  8 10  2  0     0  0
  9 23  1  0     0  0
 10 26  1  0     0  0
 11 12  1  0     0  0
 11 13  1  0     0  0
 11 15  2  0     0  0
 12 16  2  0     0  0
 12 17  1  0     0  0
 13 18  2  0     0  0
 13 24  1  0     0  0
 14 19  2  0     0  0
 14 20  1  0     0  0
 14 25  1  0     0  0
 15 21  1  0     0  0
 16 19  1  0     0  0
 17 20  2  0     0  0
 18 22  1  0     0  0
 21 22  2  0     0  0
 26 27  1  0     0  0
 27 28  1  0     0  0
 28 29  1  0     0  0
M  END
> <standard_type>
pIC50

> <# Confs.>
25

> <canonical_smiles>
ClC(N=C1C(O)=O)=C(CCCC)N1CC2=CC=C(C3=CC=CC=C3C(O)=O)C=C2

> <standard_relation>
=

> <Publication_ID>
nan

> <predicted_activity_value>
7.1249387366083

> <actual_activity_value>
7.036212172654444

> <Compound>
5

> <standard_units>
nM

> hash
11575724701589501878

$$$$
5_
XXILIB    08252103443D 0   0.00000     0.00000

 29 31  0     1  0            999 V2000
    4.9955   -1.5038   -0.1744 Cl  0  0  0  0  0  1           0  0  0
    0.7306    2.9164    0.1301 O   0  0  0  0  0  2           0  0  0
   -4.2833    1.7749    3.9492 O   0  0  0  0  0  2           0  0  0
    2.9702    3.2989    0.0415 O   0  0  0  0  0  2           0  0  0
   -5.4657   -0.0799    4.5464 O   0  0  0  0  0  2           0  0  0
    1.4518    0.0000   -0.0000 N   0  0  0  0  0  3           0  0  0
    3.5373    0.7554   -0.0626 N   0  0  0  0  0  3           0  0  0
    3.5445   -0.6136   -0.0905 C   0  0  0  0  0  4           0  0  0
    2.2693    1.1158    0.0000 C   0  0  0  0  0  4           0  0  0
    2.2598   -1.1192   -0.0452 C   0  0  0  0  0  4           0  0  0
   -2.1368    0.0472    5.3865 C   0  0  0  0  0  4           0  0  0
   -1.5905    0.0300    4.0229 C   0  0  0  0  0  4           0  0  0
   -3.4833    0.3490    5.6850 C   0  0  0  0  0  4           0  0  0
   -0.5416    0.0000    1.3969 C   0  0  0  0  0  4           0  0  0
   -1.2959   -0.2763    6.4708 C   0  0  0  0  0  4           0  0  0
   -2.1104   -0.8392    3.0525 C   0  0  0  0  0  4           0  0  0
   -0.5395    0.8852    3.6599 C   0  0  0  0  0  4           0  0  0
   -3.9609    0.3234    7.0045 C   0  0  0  0  0  4           0  0  0
   -1.5938   -0.8520    1.7539 C   0  0  0  0  0  4           0  0  0
   -0.0225    0.8716    2.3616 C   0  0  0  0  0  4           0  0  0
   -1.7721   -0.3035    7.7847 C   0  0  0  0  0  4           0  0  0
   -3.1040   -0.0063    8.0506 C   0  0  0  0  0  4           0  0  0
    1.8766    2.4921    0.0638 C   0  0  0  0  0  4           0  0  0
   -4.4261    0.7789    4.6382 C   0  0  0  0  0  4           0  0  0
   -0.0000    0.0000    0.0000 C   0  0  0  0  0  4           0  0  0
    1.7675   -2.5238   -0.0449 C   0  0  0  0  0  4           0  0  0
    1.5198   -3.0598   -1.4531 C   0  0  0  0  0  4           0  0  0
    1.0127   -4.5015   -1.4963 C   0  0  0  0  0  4           0  0  0
    0.7874   -4.9713   -2.9245 C   0  0  0  0  0  4           0  0  0
  1  8  1  0     0  0
  2 23  2  0     0  0
  3 24  2  0     0  0
  4 23  1  0     0  0
  5 24  1  0     0  0
  6  9  1  0     0  0
  6 10  1  0     0  0
  6 25  1  0     0  0
  7  8  1  0     0  0
  7  9  2  0     0  0
  8 10  2  0     0  0
  9 23  1  0     0  0
 10 26  1  0     0  0
 11 12  1  0     0  0
 11 13  1  0     0  0
 11 15  2  0     0  0
 12 16  2  0     0  0
 12 17  1  0     0  0
 13 18  2  0     0  0
 13 24  1  0     0  0
 14 19  2  0     0  0
 14 20  1  0     0  0
 14 25  1  0     0  0
 15 21  1  0     0  0
 16 19  1  0     0  0
 17 20  2  0     0  0
 18 22  1  0     0  0
 21 22  2  0     0  0
 26 27  1  0     0  0
 27 28  1  0     0  0
 28 29  1  0     0  0
M  END
> <standard_type>
pIC50

> <# Confs.>
25

> <canonical_smiles>
ClC(N=C1C(O)=O)=C(CCCC)N1CC2=CC=C(C3=CC=CC=C3C(O)=O)C=C2

> <standard_relation>
=

> <Publication_ID>
nan

> <predicted_activity_value>
7.1249387366083

> <actual_activity_value>
7.036212172654444

> <Compound>
5

> <standard_units>
nM

> hash
11575724701589501878

$$$$
5_
XXILIB    08252103443D 0   0.00000     0.00000

 29 31  0     1  0            999 V2000
    4.9955   -1.5038   -0.1744 Cl  0  0  0  0  0  1           0  0  0
    0.8351    2.9692   -0.3667 O   0  0  0  0  0  2           0  0  0
   -4.5841   -0.7172    3.8010 O   0  0  0  0  0  2           0  0  0
    2.8350    3.2306    0.6832 O   0  0  0  0  0  2           0  0  0
   -5.2219    1.1711    4.9067 O   0  0  0  0  0  2           0  0  0
    1.4518    0.0000   -0.0000 N   0  0  0  0  0  3           0  0  0
    3.5373    0.7554   -0.0626 N   0  0  0  0  0  3           0  0  0
    3.5445   -0.6136   -0.0905 C   0  0  0  0  0  4           0  0  0
    2.2693    1.1158    0.0000 C   0  0  0  0  0  4           0  0  0
    2.2598   -1.1192   -0.0452 C   0  0  0  0  0  4           0  0  0
   -2.0338   -0.0014    5.4264 C   0  0  0  0  0  4           0  0  0
   -1.5250   -0.0009    4.0483 C   0  0  0  0  0  4           0  0  0
   -3.4075   -0.0137    5.7521 C   0  0  0  0  0  4           0  0  0
   -0.5416    0.0000    1.3969 C   0  0  0  0  0  4           0  0  0
   -1.1196   -0.0156    6.4994 C   0  0  0  0  0  4           0  0  0
   -1.2881    1.2045    3.3713 C   0  0  0  0  0  4           0  0  0
   -1.2611   -1.2057    3.3801 C   0  0  0  0  0  4           0  0  0
   -3.8400   -0.0424    7.0870 C   0  0  0  0  0  4           0  0  0
   -0.7994    1.2049    2.0619 C   0  0  0  0  0  4           0  0  0
   -0.7733   -1.2051    2.0705 C   0  0  0  0  0  4           0  0  0
   -1.5504   -0.0461    7.8289 C   0  0  0  0  0  4           0  0  0
   -2.9094   -0.0620    8.1219 C   0  0  0  0  0  4           0  0  0
    1.8766    2.4921    0.0638 C   0  0  0  0  0  4           0  0  0
   -4.4460    0.0816    4.7120 C   0  0  0  0  0  4           0  0  0
    0.0000    0.0000    0.0000 C   0  0  0  0  0  4           0  0  0
    1.7675   -2.5238   -0.0449 C   0  0  0  0  0  4           0  0  0
    1.5198   -3.0598   -1.4531 C   0  0  0  0  0  4           0  0  0
    1.0127   -4.5015   -1.4963 C   0  0  0  0  0  4           0  0  0
    0.7874   -4.9713   -2.9245 C   0  0  0  0  0  4           0  0  0
  1  8  1  0     0  0
  2 23  2  0     0  0
  3 24  2  0     0  0
  4 23  1  0     0  0
  5 24  1  0     0  0
  6  9  1  0     0  0
  6 10  1  0     0  0
  6 25  1  0     0  0
  7  8  1  0     0  0
  7  9  2  0     0  0
  8 10  2  0     0  0
  9 23  1  0     0  0
 10 26  1  0     0  0
 11 12  1  0     0  0
 11 13  1  0     0  0
 11 15  2  0     0  0
 12 16  2  0     0  0
 12 17  1  0     0  0
 13 18  2  0     0  0
 13 24  1  0     0  0
 14 19  2  0     0  0
 14 20  1  0     0  0
 14 25  1  0     0  0
 15 21  1  0     0  0
 16 19  1  0     0  0
 17 20  2  0     0  0
 18 22  1  0     0  0
 21 22  2  0     0  0
 26 27  1  0     0  0
 27 28  1  0     0  0
 28 29  1  0     0  0
M  END
> <standard_type>
pIC50

> <# Confs.>
25

> <canonical_smiles>
ClC(N=C1C(O)=O)=C(CCCC)N1CC2=CC=C(C3=CC=CC=C3C(O)=O)C=C2

> <standard_relation>
=

> <Publication_ID>
nan

> <predicted_activity_value>
7.1249387366083

> <actual_activity_value>
7.036212172654444

> <Compound>
5

> <standard_units>
nM

> hash
11575724701589501878

$$$$
6_
XXILIB    08252103443D 0   0.00000     0.00000

 29 31  0     1  0            999 V2000
    5.0074   -1.4914   -0.0122 Cl  0  0  0  0  0  1           0  0  0
   -4.6018   -1.0254    3.9373 O   0  0  0  0  0  2           0  0  0
    0.7380   -2.5888   -0.9589 O   0  0  0  0  0  2           0  0  0
   -5.2861    0.9787    4.7809 O   0  0  0  0  0  2           0  0  0
    1.4523   -0.0000   -0.0000 N   0  0  0  0  0  3           0  0  0
    3.5393    0.7630   -0.0025 N   0  0  0  0  0  3           0  0  0
    3.5500   -0.6068   -0.0019 C   0  0  0  0  0  4           0  0  0
    2.2690    1.1150    0.0000 C   0  0  0  0  0  4           0  0  0
    2.2653   -1.1171    0.0044 C   0  0  0  0  0  4           0  0  0
   -2.0446   -0.0040    5.4234 C   0  0  0  0  0  4           0  0  0
   -1.5306   -0.0017    4.0471 C   0  0  0  0  0  4           0  0  0
   -3.4195   -0.0176    5.7457 C   0  0  0  0  0  4           0  0  0
   -0.5425    0.0000    1.3966 C   0  0  0  0  0  4           0  0  0
   -1.1355    0.0384    6.4998 C   0  0  0  0  0  4           0  0  0
   -1.2915    1.2039    3.3707 C   0  0  0  0  0  4           0  0  0
   -1.2647   -1.2060    3.3790 C   0  0  0  0  0  4           0  0  0
   -3.8595    0.0384    7.0761 C   0  0  0  0  0  4           0  0  0
   -0.8009    1.2048    2.0617 C   0  0  0  0  0  4           0  0  0
   -0.7743   -1.2055    2.0702 C   0  0  0  0  0  4           0  0  0
   -1.5732    0.0806    7.8271 C   0  0  0  0  0  4           0  0  0
   -2.9337    0.0847    8.1141 C   0  0  0  0  0  4           0  0  0
   -4.4774   -0.1029    4.7248 C   0  0  0  0  0  4           0  0  0
    1.7788   -2.5157    0.0058 C   0  0  0  0  0  4           0  0  0
    0.1768   -3.8913   -1.0604 C   0  0  0  0  0  4           0  0  0
    0.0000    0.0000    0.0000 C   0  0  0  0  0  4           0  0  0
    1.7865    2.5211   -0.0017 C   0  0  0  0  0  4           0  0  0
    2.5423    3.3936   -0.9988 C   0  0  0  0  0  4           0  0  0
    2.4340    2.9263   -2.4506 C   0  0  0  0  0  4           0  0  0
    3.1988    3.8184   -3.4171 C   0  0  0  0  0  4           0  0  0
  1  7  1  0     0  0
  2 22  2  0     0  0
  3 23  1  0     0  0
  3 24  1  0     0  0
  4 22  1  0     0  0
  5  8  1  0     0  0
  5  9  1  0     0  0
  5 25  1  0     0  0
  6  7  1  0     0  0
  6  8  2  0     0  0
  7  9  2  0     0  0
  8 26  1  0     0  0
  9 23  1  0     0  0
 10 11  1  0     0  0
 10 12  1  0     0  0
 10 14  2  0     0  0
 11 15  2  0     0  0
 11 16  1  0     0  0
 12 17  2  0     0  0
 12 22  1  0     0  0
 13 18  2  0     0  0
 13 19  1  0     0  0
 13 25  1  0     0  0
 14 20  1  0     0  0
 15 18  1  0     0  0
 16 19  2  0     0  0
 17 21  1  0     0  0
 20 21  2  0     0  0
 26 27  1  0     0  0
 27 28  1  0     0  0
 28 29  1  0     0  0
M  END
> <standard_type>
pIC50

> <# Confs.>
25

> <canonical_smiles>
ClC(N=C1CCCC)=C(COC)N1CC2=CC=C(C3=CC=CC=C3C(O)=O)C=C2

> <standard_relation>
=

> <Publication_ID>
nan

> <predicted_activity_value>
6.721246399047171

> <actual_activity_value>
7.00436480540245

> <Compound>
6

> <standard_units>
nM

> hash
1825488953729453991

$$$$
6_
XXILIB    08252103443D 0   0.00000     0.00000

 29 31  0     1  0            999 V2000
    5.0074   -1.4914   -0.0122 Cl  0  0  0  0  0  1           0  0  0
   -4.6431    0.7138    3.8347 O   0  0  0  0  0  2           0  0  0
    0.7380   -2.5888   -0.9589 O   0  0  0  0  0  2           0  0  0
   -5.2363   -1.2057    4.9118 O   0  0  0  0  0  2           0  0  0
    1.4523   -0.0000   -0.0000 N   0  0  0  0  0  3           0  0  0
    3.5393    0.7630   -0.0025 N   0  0  0  0  0  3           0  0  0
    3.5500   -0.6068   -0.0019 C   0  0  0  0  0  4           0  0  0
    2.2690    1.1150    0.0000 C   0  0  0  0  0  4           0  0  0
    2.2653   -1.1171    0.0044 C   0  0  0  0  0  4           0  0  0
   -2.0446   -0.0040    5.4234 C   0  0  0  0  0  4           0  0  0
   -1.5306   -0.0017    4.0471 C   0  0  0  0  0  4           0  0  0
   -3.4195   -0.0176    5.7457 C   0  0  0  0  0  4           0  0  0
   -0.5425    0.0000    1.3966 C   0  0  0  0  0  4           0  0  0
   -1.1355    0.0384    6.4998 C   0  0  0  0  0  4           0  0  0
   -1.2915    1.2039    3.3707 C   0  0  0  0  0  4           0  0  0
   -1.2647   -1.2060    3.3790 C   0  0  0  0  0  4           0  0  0
   -3.8595    0.0384    7.0761 C   0  0  0  0  0  4           0  0  0
   -0.8009    1.2048    2.0617 C   0  0  0  0  0  4           0  0  0
   -0.7743   -1.2055    2.0702 C   0  0  0  0  0  4           0  0  0
   -1.5732    0.0806    7.8271 C   0  0  0  0  0  4           0  0  0
   -2.9337    0.0847    8.1141 C   0  0  0  0  0  4           0  0  0
   -4.4774   -0.1029    4.7248 C   0  0  0  0  0  4           0  0  0
    1.7788   -2.5157    0.0058 C   0  0  0  0  0  4           0  0  0
    0.1768   -3.8913   -1.0604 C   0  0  0  0  0  4           0  0  0
    0.0000    0.0000    0.0000 C   0  0  0  0  0  4           0  0  0
    1.7865    2.5211   -0.0017 C   0  0  0  0  0  4           0  0  0
    2.5423    3.3936   -0.9988 C   0  0  0  0  0  4           0  0  0
    2.4340    2.9263   -2.4506 C   0  0  0  0  0  4           0  0  0
    3.1988    3.8184   -3.4171 C   0  0  0  0  0  4           0  0  0
  1  7  1  0     0  0
  2 22  2  0     0  0
  3 23  1  0     0  0
  3 24  1  0     0  0
  4 22  1  0     0  0
  5  8  1  0     0  0
  5  9  1  0     0  0
  5 25  1  0     0  0
  6  7  1  0     0  0
  6  8  2  0     0  0
  7  9  2  0     0  0
  8 26  1  0     0  0
  9 23  1  0     0  0
 10 11  1  0     0  0
 10 12  1  0     0  0
 10 14  2  0     0  0
 11 15  2  0     0  0
 11 16  1  0     0  0
 12 17  2  0     0  0
 12 22  1  0     0  0
 13 18  2  0     0  0
 13 19  1  0     0  0
 13 25  1  0     0  0
 14 20  1  0     0  0
 15 18  1  0     0  0
 16 19  2  0     0  0
 17 21  1  0     0  0
 20 21  2  0     0  0
 26 27  1  0     0  0
 27 28  1  0     0  0
 28 29  1  0     0  0
M  END
> <standard_type>
pIC50

> <# Confs.>
25

> <canonical_smiles>
ClC(N=C1CCCC)=C(COC)N1CC2=CC=C(C3=CC=CC=C3C(O)=O)C=C2

> <standard_relation>
=

> <Publication_ID>
nan

> <predicted_activity_value>
6.721246399047171

> <actual_activity_value>
7.00436480540245

> <Compound>
6

> <standard_units>
nM

> hash
1825488953729453991

$$$$
6_
XXILIB    08252103443D 0   0.00000     0.00000

 29 31  0     1  0            999 V2000
    5.0074   -1.4914   -0.0122 Cl  0  0  0  0  0  1           0  0  0
   -4.7156    0.5693    3.8976 O   0  0  0  0  0  2           0  0  0
    0.7380   -2.5888   -0.9589 O   0  0  0  0  0  2           0  0  0
   -4.4169    2.4777    5.1081 O   0  0  0  0  0  2           0  0  0
    1.4523   -0.0000   -0.0000 N   0  0  0  0  0  3           0  0  0
    3.5393    0.7630   -0.0025 N   0  0  0  0  0  3           0  0  0
    3.5500   -0.6068   -0.0019 C   0  0  0  0  0  4           0  0  0
    2.2690    1.1150    0.0000 C   0  0  0  0  0  4           0  0  0
    2.2653   -1.1171    0.0044 C   0  0  0  0  0  4           0  0  0
   -2.0446   -0.0040    5.4234 C   0  0  0  0  0  4           0  0  0
   -1.5306   -0.0017    4.0471 C   0  0  0  0  0  4           0  0  0
   -3.2781    0.5717    5.7995 C   0  0  0  0  0  4           0  0  0
   -0.5425    0.0000    1.3966 C   0  0  0  0  0  4           0  0  0
   -1.2689   -0.5815    6.4490 C   0  0  0  0  0  4           0  0  0
   -1.2915    1.2039    3.3707 C   0  0  0  0  0  4           0  0  0
   -1.2647   -1.2060    3.3790 C   0  0  0  0  0  4           0  0  0
   -3.6975    0.5933    7.1375 C   0  0  0  0  0  4           0  0  0
   -0.8009    1.2048    2.0617 C   0  0  0  0  0  4           0  0  0
   -0.7743   -1.2055    2.0702 C   0  0  0  0  0  4           0  0  0
   -1.6926   -0.5725    7.7814 C   0  0  0  0  0  4           0  0  0
   -2.9036    0.0180    8.1252 C   0  0  0  0  0  4           0  0  0
   -4.2076    1.1721    4.8278 C   0  0  0  0  0  4           0  0  0
    1.7788   -2.5157    0.0058 C   0  0  0  0  0  4           0  0  0
    0.1768   -3.8913   -1.0604 C   0  0  0  0  0  4           0  0  0
    0.0000    0.0000    0.0000 C   0  0  0  0  0  4           0  0  0
    1.7865    2.5211   -0.0017 C   0  0  0  0  0  4           0  0  0
    2.5423    3.3936   -0.9988 C   0  0  0  0  0  4           0  0  0
    2.0795    4.8504   -1.0356 C   0  0  0  0  0  4           0  0  0
    2.8538    5.6911   -2.0399 C   0  0  0  0  0  4           0  0  0
  1  7  1  0     0  0
  2 22  2  0     0  0
  3 23  1  0     0  0
  3 24  1  0     0  0
  4 22  1  0     0  0
  5  8  1  0     0  0
  5  9  1  0     0  0
  5 25  1  0     0  0
  6  7  1  0     0  0
  6  8  2  0     0  0
  7  9  2  0     0  0
  8 26  1  0     0  0
  9 23  1  0     0  0
 10 11  1  0     0  0
 10 12  1  0     0  0
 10 14  2  0     0  0
 11 15  2  0     0  0
 11 16  1  0     0  0
 12 17  2  0     0  0
 12 22  1  0     0  0
 13 18  2  0     0  0
 13 19  1  0     0  0
 13 25  1  0     0  0
 14 20  1  0     0  0
 15 18  1  0     0  0
 16 19  2  0     0  0
 17 21  1  0     0  0
 20 21  2  0     0  0
 26 27  1  0     0  0
 27 28  1  0     0  0
 28 29  1  0     0  0
M  END
> <standard_type>
pIC50

> <# Confs.>
25

> <canonical_smiles>
ClC(N=C1CCCC)=C(COC)N1CC2=CC=C(C3=CC=CC=C3C(O)=O)C=C2

> <standard_relation>
=

> <Publication_ID>
nan

> <predicted_activity_value>
6.721246399047171

> <actual_activity_value>
7.00436480540245

> <Compound>
6

> <standard_units>
nM

> hash
1825488953729453991

$$$$
6_
XXILIB    08252103443D 0   0.00000     0.00000

 29 31  0     1  0            999 V2000
    5.0074   -1.4914   -0.0122 Cl  0  0  0  0  0  1           0  0  0
    0.9600   -0.7200    5.9247 O   0  0  0  0  0  2           0  0  0
    0.7380   -2.5888   -0.9589 O   0  0  0  0  0  2           0  0  0
    0.6999    1.1956    7.1327 O   0  0  0  0  0  2           0  0  0
    1.4523   -0.0000   -0.0000 N   0  0  0  0  0  3           0  0  0
    3.5393    0.7630   -0.0025 N   0  0  0  0  0  3           0  0  0
    3.5500   -0.6068   -0.0019 C   0  0  0  0  0  4           0  0  0
    2.2690    1.1150    0.0000 C   0  0  0  0  0  4           0  0  0
    2.2653   -1.1171    0.0044 C   0  0  0  0  0  4           0  0  0
   -2.0446   -0.0040    5.4234 C   0  0  0  0  0  4           0  0  0
   -1.5306   -0.0017    4.0471 C   0  0  0  0  0  4           0  0  0
   -1.2174    0.0071    6.5680 C   0  0  0  0  0  4           0  0  0
   -0.5425    0.0000    1.3966 C   0  0  0  0  0  4           0  0  0
   -3.4366   -0.0486    5.6404 C   0  0  0  0  0  4           0  0  0
   -1.2915    1.2039    3.3707 C   0  0  0  0  0  4           0  0  0
   -1.2647   -1.2060    3.3790 C   0  0  0  0  0  4           0  0  0
   -1.7571   -0.0533    7.8611 C   0  0  0  0  0  4           0  0  0
   -0.8009    1.2048    2.0617 C   0  0  0  0  0  4           0  0  0
   -0.7743   -1.2055    2.0702 C   0  0  0  0  0  4           0  0  0
   -3.9760   -0.0952    6.9295 C   0  0  0  0  0  4           0  0  0
   -3.1366   -0.1017    8.0380 C   0  0  0  0  0  4           0  0  0
    0.2506    0.0942    6.4908 C   0  0  0  0  0  4           0  0  0
    1.7788   -2.5157    0.0058 C   0  0  0  0  0  4           0  0  0
    0.1768   -3.8913   -1.0604 C   0  0  0  0  0  4           0  0  0
    0.0000    0.0000    0.0000 C   0  0  0  0  0  4           0  0  0
    1.7865    2.5211   -0.0017 C   0  0  0  0  0  4           0  0  0
    2.5423    3.3936   -0.9988 C   0  0  0  0  0  4           0  0  0
    2.4340    2.9263   -2.4506 C   0  0  0  0  0  4           0  0  0
    3.1988    3.8184   -3.4171 C   0  0  0  0  0  4           0  0  0
  1  7  1  0     0  0
  2 22  2  0     0  0
  3 23  1  0     0  0
  3 24  1  0     0  0
  4 22  1  0     0  0
  5  8  1  0     0  0
  5  9  1  0     0  0
  5 25  1  0     0  0
  6  7  1  0     0  0
  6  8  2  0     0  0
  7  9  2  0     0  0
  8 26  1  0     0  0
  9 23  1  0     0  0
 10 11  1  0     0  0
 10 12  1  0     0  0
 10 14  2  0     0  0
 11 15  2  0     0  0
 11 16  1  0     0  0
 12 17  2  0     0  0
 12 22  1  0     0  0
 13 18  2  0     0  0
 13 19  1  0     0  0
 13 25  1  0     0  0
 14 20  1  0     0  0
 15 18  1  0     0  0
 16 19  2  0     0  0
 17 21  1  0     0  0
 20 21  2  0     0  0
 26 27  1  0     0  0
 27 28  1  0     0  0
 28 29  1  0     0  0
M  END
> <standard_type>
pIC50

> <# Confs.>
25

> <canonical_smiles>
ClC(N=C1CCCC)=C(COC)N1CC2=CC=C(C3=CC=CC=C3C(O)=O)C=C2

> <standard_relation>
=

> <Publication_ID>
nan

> <predicted_activity_value>
6.721246399047171

> <actual_activity_value>
7.00436480540245

> <Compound>
6

> <standard_units>
nM

> hash
1825488953729453991

$$$$
6_
XXILIB    08252103443D 0   0.00000     0.00000

 29 31  0     1  0            999 V2000
    5.0074   -1.4914   -0.0122 Cl  0  0  0  0  0  1           0  0  0
    0.8597    1.0190    5.9803 O   0  0  0  0  0  2           0  0  0
    0.7380   -2.5888   -0.9589 O   0  0  0  0  0  2           0  0  0
    0.8258   -0.9885    7.0600 O   0  0  0  0  0  2           0  0  0
    1.4523   -0.0000   -0.0000 N   0  0  0  0  0  3           0  0  0
    3.5393    0.7630   -0.0025 N   0  0  0  0  0  3           0  0  0
    3.5500   -0.6068   -0.0019 C   0  0  0  0  0  4           0  0  0
    2.2690    1.1150    0.0000 C   0  0  0  0  0  4           0  0  0
    2.2653   -1.1171    0.0044 C   0  0  0  0  0  4           0  0  0
   -2.0446   -0.0040    5.4234 C   0  0  0  0  0  4           0  0  0
   -1.5306   -0.0017    4.0471 C   0  0  0  0  0  4           0  0  0
   -1.2174    0.0071    6.5680 C   0  0  0  0  0  4           0  0  0
   -0.5425    0.0000    1.3966 C   0  0  0  0  0  4           0  0  0
   -3.4366   -0.0486    5.6404 C   0  0  0  0  0  4           0  0  0
   -1.2915    1.2039    3.3707 C   0  0  0  0  0  4           0  0  0
   -1.2647   -1.2060    3.3790 C   0  0  0  0  0  4           0  0  0
   -1.7571   -0.0533    7.8611 C   0  0  0  0  0  4           0  0  0
   -0.8009    1.2048    2.0617 C   0  0  0  0  0  4           0  0  0
   -0.7743   -1.2055    2.0702 C   0  0  0  0  0  4           0  0  0
   -3.9760   -0.0952    6.9295 C   0  0  0  0  0  4           0  0  0
   -3.1366   -0.1017    8.0380 C   0  0  0  0  0  4           0  0  0
    0.2506    0.0942    6.4908 C   0  0  0  0  0  4           0  0  0
    1.7788   -2.5157    0.0058 C   0  0  0  0  0  4           0  0  0
    0.1768   -3.8913   -1.0604 C   0  0  0  0  0  4           0  0  0
    0.0000    0.0000    0.0000 C   0  0  0  0  0  4           0  0  0
    1.7865    2.5211   -0.0017 C   0  0  0  0  0  4           0  0  0
    2.5423    3.3936   -0.9988 C   0  0  0  0  0  4           0  0  0
    2.4340    2.9263   -2.4506 C   0  0  0  0  0  4           0  0  0
    3.1988    3.8184   -3.4171 C   0  0  0  0  0  4           0  0  0
  1  7  1  0     0  0
  2 22  2  0     0  0
  3 23  1  0     0  0
  3 24  1  0     0  0
  4 22  1  0     0  0
  5  8  1  0     0  0
  5  9  1  0     0  0
  5 25  1  0     0  0
  6  7  1  0     0  0
  6  8  2  0     0  0
  7  9  2  0     0  0
  8 26  1  0     0  0
  9 23  1  0     0  0
 10 11  1  0     0  0
 10 12  1  0     0  0
 10 14  2  0     0  0
 11 15  2  0     0  0
 11 16  1  0     0  0
 12 17  2  0     0  0
 12 22  1  0     0  0
 13 18  2  0     0  0
 13 19  1  0     0  0
 13 25  1  0     0  0
 14 20  1  0     0  0
 15 18  1  0     0  0
 16 19  2  0     0  0
 17 21  1  0     0  0
 20 21  2  0     0  0
 26 27  1  0     0  0
 27 28  1  0     0  0
 28 29  1  0     0  0
M  END
> <standard_type>
pIC50

> <# Confs.>
25

> <canonical_smiles>
ClC(N=C1CCCC)=C(COC)N1CC2=CC=C(C3=CC=CC=C3C(O)=O)C=C2

> <standard_relation>
=

> <Publication_ID>
nan

> <predicted_activity_value>
6.721246399047171

> <actual_activity_value>
7.00436480540245

> <Compound>
6

> <standard_units>
nM

> hash
1825488953729453991

$$$$
6_
XXILIB    08252103443D 0   0.00000     0.00000

 29 31  0     1  0            999 V2000
    5.0074    1.4914    0.0122 Cl  0  0  0  0  0  1           0  0  0
   -4.7156    0.5693    3.8976 O   0  0  0  0  0  2           0  0  0
    0.7328    2.5851   -0.9651 O   0  0  0  0  0  2           0  0  0
   -4.4169    2.4777    5.1081 O   0  0  0  0  0  2           0  0  0
    1.4523    0.0000    0.0000 N   0  0  0  0  0  3           0  0  0
    3.5393   -0.7630    0.0025 N   0  0  0  0  0  3           0  0  0
    3.5500    0.6068    0.0019 C   0  0  0  0  0  4           0  0  0
    2.2690   -1.1150    0.0000 C   0  0  0  0  0  4           0  0  0
    2.2653    1.1171   -0.0044 C   0  0  0  0  0  4           0  0  0
   -2.0446   -0.0040    5.4234 C   0  0  0  0  0  4           0  0  0
   -1.5306   -0.0017    4.0471 C   0  0  0  0  0  4           0  0  0
   -3.2781    0.5717    5.7995 C   0  0  0  0  0  4           0  0  0
   -0.5425    0.0000    1.3966 C   0  0  0  0  0  4           0  0  0
   -1.2689   -0.5815    6.4490 C   0  0  0  0  0  4           0  0  0
   -1.2915    1.2039    3.3707 C   0  0  0  0  0  4           0  0  0
   -1.2647   -1.2060    3.3790 C   0  0  0  0  0  4           0  0  0
   -3.6975    0.5933    7.1375 C   0  0  0  0  0  4           0  0  0
   -0.8009    1.2048    2.0617 C   0  0  0  0  0  4           0  0  0
   -0.7743   -1.2055    2.0702 C   0  0  0  0  0  4           0  0  0
   -1.6926   -0.5725    7.7814 C   0  0  0  0  0  4           0  0  0
   -2.9036    0.0180    8.1252 C   0  0  0  0  0  4           0  0  0
   -4.2076    1.1721    4.8278 C   0  0  0  0  0  4           0  0  0
    1.7788    2.5157   -0.0058 C   0  0  0  0  0  4           0  0  0
    0.1710    3.8871   -1.0687 C   0  0  0  0  0  4           0  0  0
    0.0000    0.0000    0.0000 C   0  0  0  0  0  4           0  0  0
    1.7865   -2.5211    0.0017 C   0  0  0  0  0  4           0  0  0
    2.5400   -3.3953   -0.9956 C   0  0  0  0  0  4           0  0  0
    2.4284   -2.9304   -2.4480 C   0  0  0  0  0  4           0  0  0
    3.1910   -3.8241   -3.4146 C   0  0  0  0  0  4           0  0  0
  1  7  1  0     0  0
  2 22  2  0     0  0
  3 23  1  0     0  0
  3 24  1  0     0  0
  4 22  1  0     0  0
  5  8  1  0     0  0
  5  9  1  0     0  0
  5 25  1  0     0  0
  6  7  1  0     0  0
  6  8  2  0     0  0
  7  9  2  0     0  0
  8 26  1  0     0  0
  9 23  1  0     0  0
 10 11  1  0     0  0
 10 12  1  0     0  0
 10 14  2  0     0  0
 11 15  2  0     0  0
 11 16  1  0     0  0
 12 17  2  0     0  0
 12 22  1  0     0  0
 13 18  2  0     0  0
 13 19  1  0     0  0
 13 25  1  0     0  0
 14 20  1  0     0  0
 15 18  1  0     0  0
 16 19  2  0     0  0
 17 21  1  0     0  0
 20 21  2  0     0  0
 26 27  1  0     0  0
 27 28  1  0     0  0
 28 29  1  0     0  0
M  END
> <standard_type>
pIC50

> <# Confs.>
25

> <canonical_smiles>
ClC(N=C1CCCC)=C(COC)N1CC2=CC=C(C3=CC=CC=C3C(O)=O)C=C2

> <standard_relation>
=

> <Publication_ID>
nan

> <predicted_activity_value>
6.721246399047171

> <actual_activity_value>
7.00436480540245

> <Compound>
6

> <standard_units>
nM

> hash
1825488953729453991

$$$$
6_
XXILIB    08252103443D 0   0.00000     0.00000

 29 31  0     1  0            999 V2000
    5.0074    1.4914    0.0122 Cl  0  0  0  0  0  1           0  0  0
   -0.7206    2.7501    5.4450 O   0  0  0  0  0  2           0  0  0
    1.6404    2.9003   -1.3667 O   0  0  0  0  0  2           0  0  0
    0.4450    1.5680    7.0072 O   0  0  0  0  0  2           0  0  0
    1.4523   -0.0000   -0.0000 N   0  0  0  0  0  3           0  0  0
    3.5393   -0.7630    0.0025 N   0  0  0  0  0  3           0  0  0
    3.5500    0.6068    0.0019 C   0  0  0  0  0  4           0  0  0
    2.2690   -1.1150    0.0000 C   0  0  0  0  0  4           0  0  0
    2.2653    1.1171   -0.0044 C   0  0  0  0  0  4           0  0  0
   -2.1395   -0.0382    5.3866 C   0  0  0  0  0  4           0  0  0
   -1.5933   -0.0262    4.0227 C   0  0  0  0  0  4           0  0  0
   -1.6696    0.7952    6.4254 C   0  0  0  0  0  4           0  0  0
   -0.5425    0.0000    1.3966 C   0  0  0  0  0  4           0  0  0
   -3.1711   -0.9429    5.7091 C   0  0  0  0  0  4           0  0  0
   -0.5245   -0.8631    3.6687 C   0  0  0  0  0  4           0  0  0
   -2.1307    0.8212    3.0426 C   0  0  0  0  0  4           0  0  0
   -2.1867    0.7049    7.7259 C   0  0  0  0  0  4           0  0  0
   -0.0068   -0.8519    2.3702 C   0  0  0  0  0  4           0  0  0
   -1.6132    0.8328    1.7443 C   0  0  0  0  0  4           0  0  0
   -3.6966   -1.0242    7.0023 C   0  0  0  0  0  4           0  0  0
   -3.2017   -0.2038    8.0100 C   0  0  0  0  0  4           0  0  0
   -0.6264    1.8142    6.2208 C   0  0  0  0  0  4           0  0  0
    1.7788    2.5157   -0.0058 C   0  0  0  0  0  4           0  0  0
    1.1753    4.2360   -1.5130 C   0  0  0  0  0  4           0  0  0
    0.0000   -0.0000    0.0000 C   0  0  0  0  0  4           0  0  0
    1.7865   -2.5211    0.0017 C   0  0  0  0  0  4           0  0  0
    2.5423   -3.3936    0.9988 C   0  0  0  0  0  4           0  0  0
    2.0795   -4.8504    1.0356 C   0  0  0  0  0  4           0  0  0
    2.8538   -5.6911    2.0399 C   0  0  0  0  0  4           0  0  0
  1  7  1  0     0  0
  2 22  2  0     0  0
  3 23  1  0     0  0
  3 24  1  0     0  0
  4 22  1  0     0  0
  5  8  1  0     0  0
  5  9  1  0     0  0
  5 25  1  0     0  0
  6  7  1  0     0  0
  6  8  2  0     0  0
  7  9  2  0     0  0
  8 26  1  0     0  0
  9 23  1  0     0  0
 10 11  1  0     0  0
 10 12  1  0     0  0
 10 14  2  0     0  0
 11 15  2  0     0  0
 11 16  1  0     0  0
 12 17  2  0     0  0
 12 22  1  0     0  0
 13 18  2  0     0  0
 13 19  1  0     0  0
 13 25  1  0     0  0
 14 20  1  0     0  0
 15 18  1  0     0  0
 16 19  2  0     0  0
 17 21  1  0     0  0
 20 21  2  0     0  0
 26 27  1  0     0  0
 27 28  1  0     0  0
 28 29  1  0     0  0
M  END
> <standard_type>
pIC50

> <# Confs.>
25

> <canonical_smiles>
ClC(N=C1CCCC)=C(COC)N1CC2=CC=C(C3=CC=CC=C3C(O)=O)C=C2

> <standard_relation>
=

> <Publication_ID>
nan

> <predicted_activity_value>
6.721246399047171

> <actual_activity_value>
7.00436480540245

> <Compound>
6

> <standard_units>
nM

> hash
1825488953729453991

$$$$
6_
XXILIB    08252103443D 0   0.00000     0.00000

 29 31  0     1  0            999 V2000
    5.0074   -1.4914   -0.0122 Cl  0  0  0  0  0  1           0  0  0
   -0.4362   -2.5833    5.4690 O   0  0  0  0  0  2           0  0  0
    1.6478   -2.9056   -1.3543 O   0  0  0  0  0  2           0  0  0
    0.4951   -1.3412    7.1382 O   0  0  0  0  0  2           0  0  0
    1.4523    0.0000    0.0000 N   0  0  0  0  0  3           0  0  0
    3.5393    0.7630   -0.0025 N   0  0  0  0  0  3           0  0  0
    3.5500   -0.6068   -0.0019 C   0  0  0  0  0  4           0  0  0
    2.2690    1.1150    0.0000 C   0  0  0  0  0  4           0  0  0
    2.2653   -1.1171    0.0044 C   0  0  0  0  0  4           0  0  0
   -2.1342    0.0438    5.3886 C   0  0  0  0  0  4           0  0  0
   -1.5911    0.0286    4.0236 C   0  0  0  0  0  4           0  0  0
   -1.6465   -0.7703    6.4344 C   0  0  0  0  0  4           0  0  0
   -0.5425    0.0000    1.3966 C   0  0  0  0  0  4           0  0  0
   -3.2217    0.8886    5.6894 C   0  0  0  0  0  4           0  0  0
   -2.1116   -0.8395    3.0522 C   0  0  0  0  0  4           0  0  0
   -0.5409    0.8844    3.6602 C   0  0  0  0  0  4           0  0  0
   -2.2373   -0.7592    7.7063 C   0  0  0  0  0  4           0  0  0
   -1.5950   -0.8519    1.7533 C   0  0  0  0  0  4           0  0  0
   -0.0240    0.8721    2.3617 C   0  0  0  0  0  4           0  0  0
   -3.8028    0.9102    6.9610 C   0  0  0  0  0  4           0  0  0
   -3.3133    0.0840    7.9666 C   0  0  0  0  0  4           0  0  0
   -0.4908   -1.6687    6.2735 C   0  0  0  0  0  4           0  0  0
    1.7788   -2.5157    0.0058 C   0  0  0  0  0  4           0  0  0
    1.1835   -4.2419   -1.4980 C   0  0  0  0  0  4           0  0  0
   -0.0000    0.0000    0.0000 C   0  0  0  0  0  4           0  0  0
    1.7865    2.5211   -0.0017 C   0  0  0  0  0  4           0  0  0
    2.5423    3.3936   -0.9988 C   0  0  0  0  0  4           0  0  0
    2.4340    2.9263   -2.4506 C   0  0  0  0  0  4           0  0  0
    3.1988    3.8184   -3.4171 C   0  0  0  0  0  4           0  0  0
  1  7  1  0     0  0
  2 22  2  0     0  0
  3 23  1  0     0  0
  3 24  1  0     0  0
  4 22  1  0     0  0
  5  8  1  0     0  0
  5  9  1  0     0  0
  5 25  1  0     0  0
  6  7  1  0     0  0
  6  8  2  0     0  0
  7  9  2  0     0  0
  8 26  1  0     0  0
  9 23  1  0     0  0
 10 11  1  0     0  0
 10 12  1  0     0  0
 10 14  2  0     0  0
 11 15  2  0     0  0
 11 16  1  0     0  0
 12 17  2  0     0  0
 12 22  1  0     0  0
 13 18  2  0     0  0
 13 19  1  0     0  0
 13 25  1  0     0  0
 14 20  1  0     0  0
 15 18  1  0     0  0
 16 19  2  0     0  0
 17 21  1  0     0  0
 20 21  2  0     0  0
 26 27  1  0     0  0
 27 28  1  0     0  0
 28 29  1  0     0  0
M  END
> <standard_type>
pIC50

> <# Confs.>
25

> <canonical_smiles>
ClC(N=C1CCCC)=C(COC)N1CC2=CC=C(C3=CC=CC=C3C(O)=O)C=C2

> <standard_relation>
=

> <Publication_ID>
nan

> <predicted_activity_value>
6.721246399047171

> <actual_activity_value>
7.00436480540245

> <Compound>
6

> <standard_units>
nM

> hash
1825488953729453991

$$$$
6_
XXILIB    08252103443D 0   0.00000     0.00000

 29 31  0     1  0            999 V2000
    5.0074    1.4914    0.0122 Cl  0  0  0  0  0  1           0  0  0
   -4.7156    0.5693    3.8976 O   0  0  0  0  0  2           0  0  0
    0.7328    2.5851   -0.9651 O   0  0  0  0  0  2           0  0  0
   -4.4169    2.4777    5.1081 O   0  0  0  0  0  2           0  0  0
    1.4523    0.0000    0.0000 N   0  0  0  0  0  3           0  0  0
    3.5393   -0.7630    0.0025 N   0  0  0  0  0  3           0  0  0
    3.5500    0.6068    0.0019 C   0  0  0  0  0  4           0  0  0
    2.2690   -1.1150    0.0000 C   0  0  0  0  0  4           0  0  0
    2.2653    1.1171   -0.0044 C   0  0  0  0  0  4           0  0  0
   -2.0446   -0.0040    5.4234 C   0  0  0  0  0  4           0  0  0
   -1.5306   -0.0017    4.0471 C   0  0  0  0  0  4           0  0  0
   -3.2781    0.5717    5.7995 C   0  0  0  0  0  4           0  0  0
   -0.5425    0.0000    1.3966 C   0  0  0  0  0  4           0  0  0
   -1.2689   -0.5815    6.4490 C   0  0  0  0  0  4           0  0  0
   -1.2915    1.2039    3.3707 C   0  0  0  0  0  4           0  0  0
   -1.2647   -1.2060    3.3790 C   0  0  0  0  0  4           0  0  0
   -3.6975    0.5933    7.1375 C   0  0  0  0  0  4           0  0  0
   -0.8009    1.2048    2.0617 C   0  0  0  0  0  4           0  0  0
   -0.7743   -1.2055    2.0702 C   0  0  0  0  0  4           0  0  0
   -1.6926   -0.5725    7.7814 C   0  0  0  0  0  4           0  0  0
   -2.9036    0.0180    8.1252 C   0  0  0  0  0  4           0  0  0
   -4.2076    1.1721    4.8278 C   0  0  0  0  0  4           0  0  0
    1.7788    2.5157   -0.0058 C   0  0  0  0  0  4           0  0  0
    0.1710    3.8871   -1.0687 C   0  0  0  0  0  4           0  0  0
    0.0000    0.0000    0.0000 C   0  0  0  0  0  4           0  0  0
    1.7865   -2.5211    0.0017 C   0  0  0  0  0  4           0  0  0
    2.5400   -3.3953   -0.9956 C   0  0  0  0  0  4           0  0  0
    2.0772   -4.8522   -1.0289 C   0  0  0  0  0  4           0  0  0
    2.8491   -5.6945   -2.0335 C   0  0  0  0  0  4           0  0  0
  1  7  1  0     0  0
  2 22  2  0     0  0
  3 23  1  0     0  0
  3 24  1  0     0  0
  4 22  1  0     0  0
  5  8  1  0     0  0
  5  9  1  0     0  0
  5 25  1  0     0  0
  6  7  1  0     0  0
  6  8  2  0     0  0
  7  9  2  0     0  0
  8 26  1  0     0  0
  9 23  1  0     0  0
 10 11  1  0     0  0
 10 12  1  0     0  0
 10 14  2  0     0  0
 11 15  2  0     0  0
 11 16  1  0     0  0
 12 17  2  0     0  0
 12 22  1  0     0  0
 13 18  2  0     0  0
 13 19  1  0     0  0
 13 25  1  0     0  0
 14 20  1  0     0  0
 15 18  1  0     0  0
 16 19  2  0     0  0
 17 21  1  0     0  0
 20 21  2  0     0  0
 26 27  1  0     0  0
 27 28  1  0     0  0
 28 29  1  0     0  0
M  END
> <standard_type>
pIC50

> <# Confs.>
25

> <canonical_smiles>
ClC(N=C1CCCC)=C(COC)N1CC2=CC=C(C3=CC=CC=C3C(O)=O)C=C2

> <standard_relation>
=

> <Publication_ID>
nan

> <predicted_activity_value>
6.721246399047171

> <actual_activity_value>
7.00436480540245

> <Compound>
6

> <standard_units>
nM

> hash
1825488953729453991

$$$$
6_
XXILIB    08252103443D 0   0.00000     0.00000

 29 31  0     1  0            999 V2000
    5.0074   -1.4914   -0.0122 Cl  0  0  0  0  0  1           0  0  0
   -4.5330    1.3774    3.8855 O   0  0  0  0  0  2           0  0  0
    1.6478   -2.9056   -1.3543 O   0  0  0  0  0  2           0  0  0
   -3.8155    3.0509    5.2570 O   0  0  0  0  0  2           0  0  0
    1.4523    0.0000    0.0000 N   0  0  0  0  0  3           0  0  0
    3.5393    0.7630   -0.0025 N   0  0  0  0  0  3           0  0  0
    3.5500   -0.6068   -0.0019 C   0  0  0  0  0  4           0  0  0
    2.2690    1.1150    0.0000 C   0  0  0  0  0  4           0  0  0
    2.2653   -1.1171    0.0044 C   0  0  0  0  0  4           0  0  0
   -2.1342    0.0438    5.3886 C   0  0  0  0  0  4           0  0  0
   -1.5911    0.0286    4.0236 C   0  0  0  0  0  4           0  0  0
   -3.2008    0.8743    5.7976 C   0  0  0  0  0  4           0  0  0
   -0.5425    0.0000    1.3966 C   0  0  0  0  0  4           0  0  0
   -1.5571   -0.7866    6.3705 C   0  0  0  0  0  4           0  0  0
   -2.1116   -0.8395    3.0522 C   0  0  0  0  0  4           0  0  0
   -0.5409    0.8844    3.6602 C   0  0  0  0  0  4           0  0  0
   -3.6452    0.8923    7.1276 C   0  0  0  0  0  4           0  0  0
   -1.5950   -0.8519    1.7533 C   0  0  0  0  0  4           0  0  0
   -0.0240    0.8721    2.3617 C   0  0  0  0  0  4           0  0  0
   -2.0085   -0.7791    7.6938 C   0  0  0  0  0  4           0  0  0
   -3.0486    0.0626    8.0722 C   0  0  0  0  0  4           0  0  0
   -3.9232    1.7605    4.8694 C   0  0  0  0  0  4           0  0  0
    1.7788   -2.5157    0.0058 C   0  0  0  0  0  4           0  0  0
    1.1835   -4.2419   -1.4980 C   0  0  0  0  0  4           0  0  0
   -0.0000    0.0000    0.0000 C   0  0  0  0  0  4           0  0  0
    1.7865    2.5211   -0.0017 C   0  0  0  0  0  4           0  0  0
    2.5423    3.3936   -0.9988 C   0  0  0  0  0  4           0  0  0
    2.4340    2.9263   -2.4506 C   0  0  0  0  0  4           0  0  0
    3.1988    3.8184   -3.4171 C   0  0  0  0  0  4           0  0  0
  1  7  1  0     0  0
  2 22  2  0     0  0
  3 23  1  0     0  0
  3 24  1  0     0  0
  4 22  1  0     0  0
  5  8  1  0     0  0
  5  9  1  0     0  0
  5 25  1  0     0  0
  6  7  1  0     0  0
  6  8  2  0     0  0
  7  9  2  0     0  0
  8 26  1  0     0  0
  9 23  1  0     0  0
 10 11  1  0     0  0
 10 12  1  0     0  0
 10 14  2  0     0  0
 11 15  2  0     0  0
 11 16  1  0     0  0
 12 17  2  0     0  0
 12 22  1  0     0  0
 13 18  2  0     0  0
 13 19  1  0     0  0
 13 25  1  0     0  0
 14 20  1  0     0  0
 15 18  1  0     0  0
 16 19  2  0     0  0
 17 21  1  0     0  0
 20 21  2  0     0  0
 26 27  1  0     0  0
 27 28  1  0     0  0
 28 29  1  0     0  0
M  END
> <standard_type>
pIC50

> <# Confs.>
25

> <canonical_smiles>
ClC(N=C1CCCC)=C(COC)N1CC2=CC=C(C3=CC=CC=C3C(O)=O)C=C2

> <standard_relation>
=

> <Publication_ID>
nan

> <predicted_activity_value>
6.721246399047171

> <actual_activity_value>
7.00436480540245

> <Compound>
6

> <standard_units>
nM

> hash
1825488953729453991

$$$$
6_
XXILIB    08252103443D 0   0.00000     0.00000

 29 31  0     1  0            999 V2000
    5.0074   -1.4914   -0.0122 Cl  0  0  0  0  0  1           0  0  0
   -0.4362   -2.5833    5.4690 O   0  0  0  0  0  2           0  0  0
    1.6478   -2.9056   -1.3543 O   0  0  0  0  0  2           0  0  0
    0.4951   -1.3412    7.1382 O   0  0  0  0  0  2           0  0  0
    1.4523    0.0000    0.0000 N   0  0  0  0  0  3           0  0  0
    3.5393    0.7630   -0.0025 N   0  0  0  0  0  3           0  0  0
    3.5500   -0.6068   -0.0019 C   0  0  0  0  0  4           0  0  0
    2.2690    1.1150    0.0000 C   0  0  0  0  0  4           0  0  0
    2.2653   -1.1171    0.0044 C   0  0  0  0  0  4           0  0  0
   -2.1342    0.0438    5.3886 C   0  0  0  0  0  4           0  0  0
   -1.5911    0.0286    4.0236 C   0  0  0  0  0  4           0  0  0
   -1.6465   -0.7703    6.4344 C   0  0  0  0  0  4           0  0  0
   -0.5425    0.0000    1.3966 C   0  0  0  0  0  4           0  0  0
   -3.2217    0.8886    5.6894 C   0  0  0  0  0  4           0  0  0
   -2.1116   -0.8395    3.0522 C   0  0  0  0  0  4           0  0  0
   -0.5409    0.8844    3.6602 C   0  0  0  0  0  4           0  0  0
   -2.2373   -0.7592    7.7063 C   0  0  0  0  0  4           0  0  0
   -1.5950   -0.8519    1.7533 C   0  0  0  0  0  4           0  0  0
   -0.0240    0.8721    2.3617 C   0  0  0  0  0  4           0  0  0
   -3.8028    0.9102    6.9610 C   0  0  0  0  0  4           0  0  0
   -3.3133    0.0840    7.9666 C   0  0  0  0  0  4           0  0  0
   -0.4908   -1.6687    6.2735 C   0  0  0  0  0  4           0  0  0
    1.7788   -2.5157    0.0058 C   0  0  0  0  0  4           0  0  0
    1.1835   -4.2419   -1.4980 C   0  0  0  0  0  4           0  0  0
   -0.0000    0.0000    0.0000 C   0  0  0  0  0  4           0  0  0
    1.7865    2.5211   -0.0017 C   0  0  0  0  0  4           0  0  0
    2.5423    3.3936   -0.9988 C   0  0  0  0  0  4           0  0  0
    2.0795    4.8504   -1.0356 C   0  0  0  0  0  4           0  0  0
    2.8538    5.6911   -2.0399 C   0  0  0  0  0  4           0  0  0
  1  7  1  0     0  0
  2 22  2  0     0  0
  3 23  1  0     0  0
  3 24  1  0     0  0
  4 22  1  0     0  0
  5  8  1  0     0  0
  5  9  1  0     0  0
  5 25  1  0     0  0
  6  7  1  0     0  0
  6  8  2  0     0  0
  7  9  2  0     0  0
  8 26  1  0     0  0
  9 23  1  0     0  0
 10 11  1  0     0  0
 10 12  1  0     0  0
 10 14  2  0     0  0
 11 15  2  0     0  0
 11 16  1  0     0  0
 12 17  2  0     0  0
 12 22  1  0     0  0
 13 18  2  0     0  0
 13 19  1  0     0  0
 13 25  1  0     0  0
 14 20  1  0     0  0
 15 18  1  0     0  0
 16 19  2  0     0  0
 17 21  1  0     0  0
 20 21  2  0     0  0
 26 27  1  0     0  0
 27 28  1  0     0  0
 28 29  1  0     0  0
M  END
> <standard_type>
pIC50

> <# Confs.>
25

> <canonical_smiles>
ClC(N=C1CCCC)=C(COC)N1CC2=CC=C(C3=CC=CC=C3C(O)=O)C=C2

> <standard_relation>
=

> <Publication_ID>
nan

> <predicted_activity_value>
6.721246399047171

> <actual_activity_value>
7.00436480540245

> <Compound>
6

> <standard_units>
nM

> hash
1825488953729453991

$$$$
6_
XXILIB    08252103443D 0   0.00000     0.00000

 29 31  0     1  0            999 V2000
    5.0074   -1.4914   -0.0122 Cl  0  0  0  0  0  1           0  0  0
   -4.5330    1.3774    3.8855 O   0  0  0  0  0  2           0  0  0
    1.6478   -2.9056   -1.3543 O   0  0  0  0  0  2           0  0  0
   -3.8155    3.0509    5.2570 O   0  0  0  0  0  2           0  0  0
    1.4523    0.0000    0.0000 N   0  0  0  0  0  3           0  0  0
    3.5393    0.7630   -0.0025 N   0  0  0  0  0  3           0  0  0
    3.5500   -0.6068   -0.0019 C   0  0  0  0  0  4           0  0  0
    2.2690    1.1150    0.0000 C   0  0  0  0  0  4           0  0  0
    2.2653   -1.1171    0.0044 C   0  0  0  0  0  4           0  0  0
   -2.1342    0.0438    5.3886 C   0  0  0  0  0  4           0  0  0
   -1.5911    0.0286    4.0236 C   0  0  0  0  0  4           0  0  0
   -3.2008    0.8743    5.7976 C   0  0  0  0  0  4           0  0  0
   -0.5425    0.0000    1.3966 C   0  0  0  0  0  4           0  0  0
   -1.5571   -0.7866    6.3705 C   0  0  0  0  0  4           0  0  0
   -2.1116   -0.8395    3.0522 C   0  0  0  0  0  4           0  0  0
   -0.5409    0.8844    3.6602 C   0  0  0  0  0  4           0  0  0
   -3.6452    0.8923    7.1276 C   0  0  0  0  0  4           0  0  0
   -1.5950   -0.8519    1.7533 C   0  0  0  0  0  4           0  0  0
   -0.0240    0.8721    2.3617 C   0  0  0  0  0  4           0  0  0
   -2.0085   -0.7791    7.6938 C   0  0  0  0  0  4           0  0  0
   -3.0486    0.0626    8.0722 C   0  0  0  0  0  4           0  0  0
   -3.9232    1.7605    4.8694 C   0  0  0  0  0  4           0  0  0
    1.7788   -2.5157    0.0058 C   0  0  0  0  0  4           0  0  0
    1.1835   -4.2419   -1.4980 C   0  0  0  0  0  4           0  0  0
   -0.0000    0.0000    0.0000 C   0  0  0  0  0  4           0  0  0
    1.7865    2.5211   -0.0017 C   0  0  0  0  0  4           0  0  0
    2.5423    3.3936   -0.9988 C   0  0  0  0  0  4           0  0  0
    2.0795    4.8504   -1.0356 C   0  0  0  0  0  4           0  0  0
    2.8538    5.6911   -2.0399 C   0  0  0  0  0  4           0  0  0
  1  7  1  0     0  0
  2 22  2  0     0  0
  3 23  1  0     0  0
  3 24  1  0     0  0
  4 22  1  0     0  0
  5  8  1  0     0  0
  5  9  1  0     0  0
  5 25  1  0     0  0
  6  7  1  0     0  0
  6  8  2  0     0  0
  7  9  2  0     0  0
  8 26  1  0     0  0
  9 23  1  0     0  0
 10 11  1  0     0  0
 10 12  1  0     0  0
 10 14  2  0     0  0
 11 15  2  0     0  0
 11 16  1  0     0  0
 12 17  2  0     0  0
 12 22  1  0     0  0
 13 18  2  0     0  0
 13 19  1  0     0  0
 13 25  1  0     0  0
 14 20  1  0     0  0
 15 18  1  0     0  0
 16 19  2  0     0  0
 17 21  1  0     0  0
 20 21  2  0     0  0
 26 27  1  0     0  0
 27 28  1  0     0  0
 28 29  1  0     0  0
M  END
> <standard_type>
pIC50

> <# Confs.>
25

> <canonical_smiles>
ClC(N=C1CCCC)=C(COC)N1CC2=CC=C(C3=CC=CC=C3C(O)=O)C=C2

> <standard_relation>
=

> <Publication_ID>
nan

> <predicted_activity_value>
6.721246399047171

> <actual_activity_value>
7.00436480540245

> <Compound>
6

> <standard_units>
nM

> hash
1825488953729453991

$$$$
6_
XXILIB    08252103443D 0   0.00000     0.00000

 29 31  0     1  0            999 V2000
    5.0074    1.4914    0.0122 Cl  0  0  0  0  0  1           0  0  0
   -0.7206    2.7501    5.4450 O   0  0  0  0  0  2           0  0  0
    1.6404    2.9003   -1.3667 O   0  0  0  0  0  2           0  0  0
    0.4450    1.5680    7.0072 O   0  0  0  0  0  2           0  0  0
    1.4523   -0.0000   -0.0000 N   0  0  0  0  0  3           0  0  0
    3.5393   -0.7630    0.0025 N   0  0  0  0  0  3           0  0  0
    3.5500    0.6068    0.0019 C   0  0  0  0  0  4           0  0  0
    2.2690   -1.1150    0.0000 C   0  0  0  0  0  4           0  0  0
    2.2653    1.1171   -0.0044 C   0  0  0  0  0  4           0  0  0
   -2.1395   -0.0382    5.3866 C   0  0  0  0  0  4           0  0  0
   -1.5933   -0.0262    4.0227 C   0  0  0  0  0  4           0  0  0
   -1.6696    0.7952    6.4254 C   0  0  0  0  0  4           0  0  0
   -0.5425    0.0000    1.3966 C   0  0  0  0  0  4           0  0  0
   -3.1711   -0.9429    5.7091 C   0  0  0  0  0  4           0  0  0
   -0.5245   -0.8631    3.6687 C   0  0  0  0  0  4           0  0  0
   -2.1307    0.8212    3.0426 C   0  0  0  0  0  4           0  0  0
   -2.1867    0.7049    7.7259 C   0  0  0  0  0  4           0  0  0
   -0.0068   -0.8519    2.3702 C   0  0  0  0  0  4           0  0  0
   -1.6132    0.8328    1.7443 C   0  0  0  0  0  4           0  0  0
   -3.6966   -1.0242    7.0023 C   0  0  0  0  0  4           0  0  0
   -3.2017   -0.2038    8.0100 C   0  0  0  0  0  4           0  0  0
   -0.6264    1.8142    6.2208 C   0  0  0  0  0  4           0  0  0
    1.7788    2.5157   -0.0058 C   0  0  0  0  0  4           0  0  0
    1.1753    4.2360   -1.5130 C   0  0  0  0  0  4           0  0  0
    0.0000   -0.0000    0.0000 C   0  0  0  0  0  4           0  0  0
    1.7865   -2.5211    0.0017 C   0  0  0  0  0  4           0  0  0
    2.5400   -3.3953   -0.9956 C   0  0  0  0  0  4           0  0  0
    2.4284   -2.9304   -2.4480 C   0  0  0  0  0  4           0  0  0
    3.1910   -3.8241   -3.4146 C   0  0  0  0  0  4           0  0  0
  1  7  1  0     0  0
  2 22  2  0     0  0
  3 23  1  0     0  0
  3 24  1  0     0  0
  4 22  1  0     0  0
  5  8  1  0     0  0
  5  9  1  0     0  0
  5 25  1  0     0  0
  6  7  1  0     0  0
  6  8  2  0     0  0
  7  9  2  0     0  0
  8 26  1  0     0  0
  9 23  1  0     0  0
 10 11  1  0     0  0
 10 12  1  0     0  0
 10 14  2  0     0  0
 11 15  2  0     0  0
 11 16  1  0     0  0
 12 17  2  0     0  0
 12 22  1  0     0  0
 13 18  2  0     0  0
 13 19  1  0     0  0
 13 25  1  0     0  0
 14 20  1  0     0  0
 15 18  1  0     0  0
 16 19  2  0     0  0
 17 21  1  0     0  0
 20 21  2  0     0  0
 26 27  1  0     0  0
 27 28  1  0     0  0
 28 29  1  0     0  0
M  END
> <standard_type>
pIC50

> <# Confs.>
25

> <canonical_smiles>
ClC(N=C1CCCC)=C(COC)N1CC2=CC=C(C3=CC=CC=C3C(O)=O)C=C2

> <standard_relation>
=

> <Publication_ID>
nan

> <predicted_activity_value>
6.721246399047171

> <actual_activity_value>
7.00436480540245

> <Compound>
6

> <standard_units>
nM

> hash
1825488953729453991

$$$$
6_
XXILIB    08252103443D 0   0.00000     0.00000

 29 31  0     1  0            999 V2000
    5.0074   -1.4914   -0.0122 Cl  0  0  0  0  0  1           0  0  0
   -3.4032    2.6589    4.2298 O   0  0  0  0  0  2           0  0  0
    1.6478   -2.9056   -1.3543 O   0  0  0  0  0  2           0  0  0
   -5.2361    1.4422    4.8267 O   0  0  0  0  0  2           0  0  0
    1.4523    0.0000    0.0000 N   0  0  0  0  0  3           0  0  0
    3.5393    0.7630   -0.0025 N   0  0  0  0  0  3           0  0  0
    3.5500   -0.6068   -0.0019 C   0  0  0  0  0  4           0  0  0
    2.2690    1.1150    0.0000 C   0  0  0  0  0  4           0  0  0
    2.2653   -1.1171    0.0044 C   0  0  0  0  0  4           0  0  0
   -2.1342    0.0438    5.3886 C   0  0  0  0  0  4           0  0  0
   -1.5911    0.0286    4.0236 C   0  0  0  0  0  4           0  0  0
   -3.2008    0.8743    5.7976 C   0  0  0  0  0  4           0  0  0
   -0.5425    0.0000    1.3966 C   0  0  0  0  0  4           0  0  0
   -1.5571   -0.7866    6.3705 C   0  0  0  0  0  4           0  0  0
   -2.1116   -0.8395    3.0522 C   0  0  0  0  0  4           0  0  0
   -0.5409    0.8844    3.6602 C   0  0  0  0  0  4           0  0  0
   -3.6452    0.8923    7.1276 C   0  0  0  0  0  4           0  0  0
   -1.5950   -0.8519    1.7533 C   0  0  0  0  0  4           0  0  0
   -0.0240    0.8721    2.3617 C   0  0  0  0  0  4           0  0  0
   -2.0085   -0.7791    7.6938 C   0  0  0  0  0  4           0  0  0
   -3.0486    0.0626    8.0722 C   0  0  0  0  0  4           0  0  0
   -3.9232    1.7605    4.8694 C   0  0  0  0  0  4           0  0  0
    1.7788   -2.5157    0.0058 C   0  0  0  0  0  4           0  0  0
    1.1835   -4.2419   -1.4980 C   0  0  0  0  0  4           0  0  0
   -0.0000    0.0000    0.0000 C   0  0  0  0  0  4           0  0  0
    1.7865    2.5211   -0.0017 C   0  0  0  0  0  4           0  0  0
    2.5423    3.3936   -0.9988 C   0  0  0  0  0  4           0  0  0
    2.4340    2.9263   -2.4506 C   0  0  0  0  0  4           0  0  0
    3.1988    3.8184   -3.4171 C   0  0  0  0  0  4           0  0  0
  1  7  1  0     0  0
  2 22  2  0     0  0
  3 23  1  0     0  0
  3 24  1  0     0  0
  4 22  1  0     0  0
  5  8  1  0     0  0
  5  9  1  0     0  0
  5 25  1  0     0  0
  6  7  1  0     0  0
  6  8  2  0     0  0
  7  9  2  0     0  0
  8 26  1  0     0  0
  9 23  1  0     0  0
 10 11  1  0     0  0
 10 12  1  0     0  0
 10 14  2  0     0  0
 11 15  2  0     0  0
 11 16  1  0     0  0
 12 17  2  0     0  0
 12 22  1  0     0  0
 13 18  2  0     0  0
 13 19  1  0     0  0
 13 25  1  0     0  0
 14 20  1  0     0  0
 15 18  1  0     0  0
 16 19  2  0     0  0
 17 21  1  0     0  0
 20 21  2  0     0  0
 26 27  1  0     0  0
 27 28  1  0     0  0
 28 29  1  0     0  0
M  END
> <standard_type>
pIC50

> <# Confs.>
25

> <canonical_smiles>
ClC(N=C1CCCC)=C(COC)N1CC2=CC=C(C3=CC=CC=C3C(O)=O)C=C2

> <standard_relation>
=

> <Publication_ID>
nan

> <predicted_activity_value>
6.721246399047171

> <actual_activity_value>
7.00436480540245

> <Compound>
6

> <standard_units>
nM

> hash
1825488953729453991

$$$$
6_
XXILIB    08252103443D 0   0.00000     0.00000

 29 31  0     1  0            999 V2000
    5.0074    1.4914    0.0122 Cl  0  0  0  0  0  1           0  0  0
   -4.3523   -1.6406    3.8611 O   0  0  0  0  0  2           0  0  0
    1.6404    2.9003   -1.3667 O   0  0  0  0  0  2           0  0  0
   -3.6600   -3.1330    5.4390 O   0  0  0  0  0  2           0  0  0
    1.4523   -0.0000   -0.0000 N   0  0  0  0  0  3           0  0  0
    3.5393   -0.7630    0.0025 N   0  0  0  0  0  3           0  0  0
    3.5500    0.6068    0.0019 C   0  0  0  0  0  4           0  0  0
    2.2690   -1.1150    0.0000 C   0  0  0  0  0  4           0  0  0
    2.2653    1.1171   -0.0044 C   0  0  0  0  0  4           0  0  0
   -2.1395   -0.0382    5.3866 C   0  0  0  0  0  4           0  0  0
   -1.5933   -0.0262    4.0227 C   0  0  0  0  0  4           0  0  0
   -3.1915   -0.8843    5.8012 C   0  0  0  0  0  4           0  0  0
   -0.5425    0.0000    1.3966 C   0  0  0  0  0  4           0  0  0
   -1.6212    0.8553    6.3456 C   0  0  0  0  0  4           0  0  0
   -0.5245   -0.8631    3.6687 C   0  0  0  0  0  4           0  0  0
   -2.1307    0.8212    3.0426 C   0  0  0  0  0  4           0  0  0
   -3.7155   -0.8169    7.1003 C   0  0  0  0  0  4           0  0  0
   -0.0068   -0.8519    2.3702 C   0  0  0  0  0  4           0  0  0
   -1.6132    0.8328    1.7443 C   0  0  0  0  0  4           0  0  0
   -2.1340    0.9138    7.6451 C   0  0  0  0  0  4           0  0  0
   -3.1826    0.0812    8.0201 C   0  0  0  0  0  4           0  0  0
   -3.7990   -1.8937    4.9177 C   0  0  0  0  0  4           0  0  0
    1.7788    2.5157   -0.0058 C   0  0  0  0  0  4           0  0  0
    1.1753    4.2360   -1.5130 C   0  0  0  0  0  4           0  0  0
    0.0000   -0.0000    0.0000 C   0  0  0  0  0  4           0  0  0
    1.7865   -2.5211    0.0017 C   0  0  0  0  0  4           0  0  0
    2.5423   -3.3936    0.9988 C   0  0  0  0  0  4           0  0  0
    2.0795   -4.8504    1.0356 C   0  0  0  0  0  4           0  0  0
    2.8538   -5.6911    2.0399 C   0  0  0  0  0  4           0  0  0
  1  7  1  0     0  0
  2 22  2  0     0  0
  3 23  1  0     0  0
  3 24  1  0     0  0
  4 22  1  0     0  0
  5  8  1  0     0  0
  5  9  1  0     0  0
  5 25  1  0     0  0
  6  7  1  0     0  0
  6  8  2  0     0  0
  7  9  2  0     0  0
  8 26  1  0     0  0
  9 23  1  0     0  0
 10 11  1  0     0  0
 10 12  1  0     0  0
 10 14  2  0     0  0
 11 15  2  0     0  0
 11 16  1  0     0  0
 12 17  2  0     0  0
 12 22  1  0     0  0
 13 18  2  0     0  0
 13 19  1  0     0  0
 13 25  1  0     0  0
 14 20  1  0     0  0
 15 18  1  0     0  0
 16 19  2  0     0  0
 17 21  1  0     0  0
 20 21  2  0     0  0
 26 27  1  0     0  0
 27 28  1  0     0  0
 28 29  1  0     0  0
M  END
> <standard_type>
pIC50

> <# Confs.>
25

> <canonical_smiles>
ClC(N=C1CCCC)=C(COC)N1CC2=CC=C(C3=CC=CC=C3C(O)=O)C=C2

> <standard_relation>
=

> <Publication_ID>
nan

> <predicted_activity_value>
6.721246399047171

> <actual_activity_value>
7.00436480540245

> <Compound>
6

> <standard_units>
nM

> hash
1825488953729453991

$$$$
6_
XXILIB    08252103443D 0   0.00000     0.00000

 29 31  0     1  0            999 V2000
    5.0074    1.4914    0.0122 Cl  0  0  0  0  0  1           0  0  0
   -3.1897   -2.8184    4.4073 O   0  0  0  0  0  2           0  0  0
    1.6404    2.9003   -1.3667 O   0  0  0  0  0  2           0  0  0
   -5.1185   -1.6530    4.7509 O   0  0  0  0  0  2           0  0  0
    1.4523   -0.0000   -0.0000 N   0  0  0  0  0  3           0  0  0
    3.5393   -0.7630    0.0025 N   0  0  0  0  0  3           0  0  0
    3.5500    0.6068    0.0019 C   0  0  0  0  0  4           0  0  0
    2.2690   -1.1150    0.0000 C   0  0  0  0  0  4           0  0  0
    2.2653    1.1171   -0.0044 C   0  0  0  0  0  4           0  0  0
   -2.1395   -0.0382    5.3866 C   0  0  0  0  0  4           0  0  0
   -1.5933   -0.0262    4.0227 C   0  0  0  0  0  4           0  0  0
   -3.1915   -0.8843    5.8012 C   0  0  0  0  0  4           0  0  0
   -0.5425    0.0000    1.3966 C   0  0  0  0  0  4           0  0  0
   -1.6212    0.8553    6.3456 C   0  0  0  0  0  4           0  0  0
   -0.5245   -0.8631    3.6687 C   0  0  0  0  0  4           0  0  0
   -2.1307    0.8212    3.0426 C   0  0  0  0  0  4           0  0  0
   -3.7155   -0.8169    7.1003 C   0  0  0  0  0  4           0  0  0
   -0.0068   -0.8519    2.3702 C   0  0  0  0  0  4           0  0  0
   -1.6132    0.8328    1.7443 C   0  0  0  0  0  4           0  0  0
   -2.1340    0.9138    7.6451 C   0  0  0  0  0  4           0  0  0
   -3.1826    0.0812    8.0201 C   0  0  0  0  0  4           0  0  0
   -3.7990   -1.8937    4.9177 C   0  0  0  0  0  4           0  0  0
    1.7788    2.5157   -0.0058 C   0  0  0  0  0  4           0  0  0
    1.1753    4.2360   -1.5130 C   0  0  0  0  0  4           0  0  0
    0.0000   -0.0000    0.0000 C   0  0  0  0  0  4           0  0  0
    1.7865   -2.5211    0.0017 C   0  0  0  0  0  4           0  0  0
    2.5423   -3.3936    0.9988 C   0  0  0  0  0  4           0  0  0
    2.0795   -4.8504    1.0356 C   0  0  0  0  0  4           0  0  0
    2.8538   -5.6911    2.0399 C   0  0  0  0  0  4           0  0  0
  1  7  1  0     0  0
  2 22  2  0     0  0
  3 23  1  0     0  0
  3 24  1  0     0  0
  4 22  1  0     0  0
  5  8  1  0     0  0
  5  9  1  0     0  0
  5 25  1  0     0  0
  6  7  1  0     0  0
  6  8  2  0     0  0
  7  9  2  0     0  0
  8 26  1  0     0  0
  9 23  1  0     0  0
 10 11  1  0     0  0
 10 12  1  0     0  0
 10 14  2  0     0  0
 11 15  2  0     0  0
 11 16  1  0     0  0
 12 17  2  0     0  0
 12 22  1  0     0  0
 13 18  2  0     0  0
 13 19  1  0     0  0
 13 25  1  0     0  0
 14 20  1  0     0  0
 15 18  1  0     0  0
 16 19  2  0     0  0
 17 21  1  0     0  0
 20 21  2  0     0  0
 26 27  1  0     0  0
 27 28  1  0     0  0
 28 29  1  0     0  0
M  END
> <standard_type>
pIC50

> <# Confs.>
25

> <canonical_smiles>
ClC(N=C1CCCC)=C(COC)N1CC2=CC=C(C3=CC=CC=C3C(O)=O)C=C2

> <standard_relation>
=

> <Publication_ID>
nan

> <predicted_activity_value>
6.721246399047171

> <actual_activity_value>
7.00436480540245

> <Compound>
6

> <standard_units>
nM

> hash
1825488953729453991

$$$$
6_
XXILIB    08252103443D 0   0.00000     0.00000

 29 31  0     1  0            999 V2000
    5.0074    1.4914    0.0122 Cl  0  0  0  0  0  1           0  0  0
   -0.7206    2.7501    5.4450 O   0  0  0  0  0  2           0  0  0
    1.6404    2.9003   -1.3667 O   0  0  0  0  0  2           0  0  0
    0.4450    1.5680    7.0072 O   0  0  0  0  0  2           0  0  0
    1.4523   -0.0000   -0.0000 N   0  0  0  0  0  3           0  0  0
    3.5393   -0.7630    0.0025 N   0  0  0  0  0  3           0  0  0
    3.5500    0.6068    0.0019 C   0  0  0  0  0  4           0  0  0
    2.2690   -1.1150    0.0000 C   0  0  0  0  0  4           0  0  0
    2.2653    1.1171   -0.0044 C   0  0  0  0  0  4           0  0  0
   -2.1395   -0.0382    5.3866 C   0  0  0  0  0  4           0  0  0
   -1.5933   -0.0262    4.0227 C   0  0  0  0  0  4           0  0  0
   -1.6696    0.7952    6.4254 C   0  0  0  0  0  4           0  0  0
   -0.5425    0.0000    1.3966 C   0  0  0  0  0  4           0  0  0
   -3.1711   -0.9429    5.7091 C   0  0  0  0  0  4           0  0  0
   -0.5245   -0.8631    3.6687 C   0  0  0  0  0  4           0  0  0
   -2.1307    0.8212    3.0426 C   0  0  0  0  0  4           0  0  0
   -2.1867    0.7049    7.7259 C   0  0  0  0  0  4           0  0  0
   -0.0068   -0.8519    2.3702 C   0  0  0  0  0  4           0  0  0
   -1.6132    0.8328    1.7443 C   0  0  0  0  0  4           0  0  0
   -3.6966   -1.0242    7.0023 C   0  0  0  0  0  4           0  0  0
   -3.2017   -0.2038    8.0100 C   0  0  0  0  0  4           0  0  0
   -0.6264    1.8142    6.2208 C   0  0  0  0  0  4           0  0  0
    1.7788    2.5157   -0.0058 C   0  0  0  0  0  4           0  0  0
    1.1753    4.2360   -1.5130 C   0  0  0  0  0  4           0  0  0
    0.0000   -0.0000    0.0000 C   0  0  0  0  0  4           0  0  0
    1.7865   -2.5211    0.0017 C   0  0  0  0  0  4           0  0  0
    2.5400   -3.3953   -0.9956 C   0  0  0  0  0  4           0  0  0
    2.0772   -4.8522   -1.0289 C   0  0  0  0  0  4           0  0  0
    2.8491   -5.6945   -2.0335 C   0  0  0  0  0  4           0  0  0
  1  7  1  0     0  0
  2 22  2  0     0  0
  3 23  1  0     0  0
  3 24  1  0     0  0
  4 22  1  0     0  0
  5  8  1  0     0  0
  5  9  1  0     0  0
  5 25  1  0     0  0
  6  7  1  0     0  0
  6  8  2  0     0  0
  7  9  2  0     0  0
  8 26  1  0     0  0
  9 23  1  0     0  0
 10 11  1  0     0  0
 10 12  1  0     0  0
 10 14  2  0     0  0
 11 15  2  0     0  0
 11 16  1  0     0  0
 12 17  2  0     0  0
 12 22  1  0     0  0
 13 18  2  0     0  0
 13 19  1  0     0  0
 13 25  1  0     0  0
 14 20  1  0     0  0
 15 18  1  0     0  0
 16 19  2  0     0  0
 17 21  1  0     0  0
 20 21  2  0     0  0
 26 27  1  0     0  0
 27 28  1  0     0  0
 28 29  1  0     0  0
M  END
> <standard_type>
pIC50

> <# Confs.>
25

> <canonical_smiles>
ClC(N=C1CCCC)=C(COC)N1CC2=CC=C(C3=CC=CC=C3C(O)=O)C=C2

> <standard_relation>
=

> <Publication_ID>
nan

> <predicted_activity_value>
6.721246399047171

> <actual_activity_value>
7.00436480540245

> <Compound>
6

> <standard_units>
nM

> hash
1825488953729453991

$$$$
6_
XXILIB    08252103443D 0   0.00000     0.00000

 29 31  0     1  0            999 V2000
    5.0074   -1.4914   -0.0122 Cl  0  0  0  0  0  1           0  0  0
   -0.3420   -2.5128    5.5965 O   0  0  0  0  0  2           0  0  0
    1.6478   -2.9056   -1.3543 O   0  0  0  0  0  2           0  0  0
   -2.4418   -3.3554    5.8753 O   0  0  0  0  0  2           0  0  0
    1.4523    0.0000    0.0000 N   0  0  0  0  0  3           0  0  0
    3.5393    0.7630   -0.0025 N   0  0  0  0  0  3           0  0  0
    3.5500   -0.6068   -0.0019 C   0  0  0  0  0  4           0  0  0
    2.2690    1.1150    0.0000 C   0  0  0  0  0  4           0  0  0
    2.2653   -1.1171    0.0044 C   0  0  0  0  0  4           0  0  0
   -2.1342    0.0438    5.3886 C   0  0  0  0  0  4           0  0  0
   -1.5911    0.0286    4.0236 C   0  0  0  0  0  4           0  0  0
   -2.1342   -1.0800    6.2438 C   0  0  0  0  0  4           0  0  0
   -0.5425    0.0000    1.3966 C   0  0  0  0  0  4           0  0  0
   -2.7193    1.2260    5.8856 C   0  0  0  0  0  4           0  0  0
   -2.1116   -0.8395    3.0522 C   0  0  0  0  0  4           0  0  0
   -0.5409    0.8844    3.6602 C   0  0  0  0  0  4           0  0  0
   -2.7167   -1.0291    7.5185 C   0  0  0  0  0  4           0  0  0
   -1.5950   -0.8519    1.7533 C   0  0  0  0  0  4           0  0  0
   -0.0240    0.8721    2.3617 C   0  0  0  0  0  4           0  0  0
   -3.2883    1.2815    7.1615 C   0  0  0  0  0  4           0  0  0
   -3.2903    0.1538    7.9750 C   0  0  0  0  0  4           0  0  0
   -1.5209   -2.3660    5.8715 C   0  0  0  0  0  4           0  0  0
    1.7788   -2.5157    0.0058 C   0  0  0  0  0  4           0  0  0
    1.1835   -4.2419   -1.4980 C   0  0  0  0  0  4           0  0  0
   -0.0000    0.0000    0.0000 C   0  0  0  0  0  4           0  0  0
    1.7865    2.5211   -0.0017 C   0  0  0  0  0  4           0  0  0
    2.5423    3.3936   -0.9988 C   0  0  0  0  0  4           0  0  0
    2.4340    2.9263   -2.4506 C   0  0  0  0  0  4           0  0  0
    3.1988    3.8184   -3.4171 C   0  0  0  0  0  4           0  0  0
  1  7  1  0     0  0
  2 22  2  0     0  0
  3 23  1  0     0  0
  3 24  1  0     0  0
  4 22  1  0     0  0
  5  8  1  0     0  0
  5  9  1  0     0  0
  5 25  1  0     0  0
  6  7  1  0     0  0
  6  8  2  0     0  0
  7  9  2  0     0  0
  8 26  1  0     0  0
  9 23  1  0     0  0
 10 11  1  0     0  0
 10 12  1  0     0  0
 10 14  2  0     0  0
 11 15  2  0     0  0
 11 16  1  0     0  0
 12 17  2  0     0  0
 12 22  1  0     0  0
 13 18  2  0     0  0
 13 19  1  0     0  0
 13 25  1  0     0  0
 14 20  1  0     0  0
 15 18  1  0     0  0
 16 19  2  0     0  0
 17 21  1  0     0  0
 20 21  2  0     0  0
 26 27  1  0     0  0
 27 28  1  0     0  0
 28 29  1  0     0  0
M  END
> <standard_type>
pIC50

> <# Confs.>
25

> <canonical_smiles>
ClC(N=C1CCCC)=C(COC)N1CC2=CC=C(C3=CC=CC=C3C(O)=O)C=C2

> <standard_relation>
=

> <Publication_ID>
nan

> <predicted_activity_value>
6.721246399047171

> <actual_activity_value>
7.00436480540245

> <Compound>
6

> <standard_units>
nM

> hash
1825488953729453991

$$$$
6_
XXILIB    08252103443D 0   0.00000     0.00000

 29 31  0     1  0            999 V2000
    5.0074   -1.4914   -0.0122 Cl  0  0  0  0  0  1           0  0  0
   -3.4032    2.6589    4.2298 O   0  0  0  0  0  2           0  0  0
    1.6478   -2.9056   -1.3543 O   0  0  0  0  0  2           0  0  0
   -5.2361    1.4422    4.8267 O   0  0  0  0  0  2           0  0  0
    1.4523    0.0000    0.0000 N   0  0  0  0  0  3           0  0  0
    3.5393    0.7630   -0.0025 N   0  0  0  0  0  3           0  0  0
    3.5500   -0.6068   -0.0019 C   0  0  0  0  0  4           0  0  0
    2.2690    1.1150    0.0000 C   0  0  0  0  0  4           0  0  0
    2.2653   -1.1171    0.0044 C   0  0  0  0  0  4           0  0  0
   -2.1342    0.0438    5.3886 C   0  0  0  0  0  4           0  0  0
   -1.5911    0.0286    4.0236 C   0  0  0  0  0  4           0  0  0
   -3.2008    0.8743    5.7976 C   0  0  0  0  0  4           0  0  0
   -0.5425    0.0000    1.3966 C   0  0  0  0  0  4           0  0  0
   -1.5571   -0.7866    6.3705 C   0  0  0  0  0  4           0  0  0
   -2.1116   -0.8395    3.0522 C   0  0  0  0  0  4           0  0  0
   -0.5409    0.8844    3.6602 C   0  0  0  0  0  4           0  0  0
   -3.6452    0.8923    7.1276 C   0  0  0  0  0  4           0  0  0
   -1.5950   -0.8519    1.7533 C   0  0  0  0  0  4           0  0  0
   -0.0240    0.8721    2.3617 C   0  0  0  0  0  4           0  0  0
   -2.0085   -0.7791    7.6938 C   0  0  0  0  0  4           0  0  0
   -3.0486    0.0626    8.0722 C   0  0  0  0  0  4           0  0  0
   -3.9232    1.7605    4.8694 C   0  0  0  0  0  4           0  0  0
    1.7788   -2.5157    0.0058 C   0  0  0  0  0  4           0  0  0
    1.1835   -4.2419   -1.4980 C   0  0  0  0  0  4           0  0  0
   -0.0000    0.0000    0.0000 C   0  0  0  0  0  4           0  0  0
    1.7865    2.5211   -0.0017 C   0  0  0  0  0  4           0  0  0
    2.5423    3.3936   -0.9988 C   0  0  0  0  0  4           0  0  0
    2.0795    4.8504   -1.0356 C   0  0  0  0  0  4           0  0  0
    2.8538    5.6911   -2.0399 C   0  0  0  0  0  4           0  0  0
  1  7  1  0     0  0
  2 22  2  0     0  0
  3 23  1  0     0  0
  3 24  1  0     0  0
  4 22  1  0     0  0
  5  8  1  0     0  0
  5  9  1  0     0  0
  5 25  1  0     0  0
  6  7  1  0     0  0
  6  8  2  0     0  0
  7  9  2  0     0  0
  8 26  1  0     0  0
  9 23  1  0     0  0
 10 11  1  0     0  0
 10 12  1  0     0  0
 10 14  2  0     0  0
 11 15  2  0     0  0
 11 16  1  0     0  0
 12 17  2  0     0  0
 12 22  1  0     0  0
 13 18  2  0     0  0
 13 19  1  0     0  0
 13 25  1  0     0  0
 14 20  1  0     0  0
 15 18  1  0     0  0
 16 19  2  0     0  0
 17 21  1  0     0  0
 20 21  2  0     0  0
 26 27  1  0     0  0
 27 28  1  0     0  0
 28 29  1  0     0  0
M  END
> <standard_type>
pIC50

> <# Confs.>
25

> <canonical_smiles>
ClC(N=C1CCCC)=C(COC)N1CC2=CC=C(C3=CC=CC=C3C(O)=O)C=C2

> <standard_relation>
=

> <Publication_ID>
nan

> <predicted_activity_value>
6.721246399047171

> <actual_activity_value>
7.00436480540245

> <Compound>
6

> <standard_units>
nM

> hash
1825488953729453991

$$$$
6_
XXILIB    08252103443D 0   0.00000     0.00000

 29 31  0     1  0            999 V2000
    5.0074   -1.4914   -0.0122 Cl  0  0  0  0  0  1           0  0  0
   -3.1897   -2.8184    4.4073 O   0  0  0  0  0  2           0  0  0
    1.6478   -2.9056   -1.3543 O   0  0  0  0  0  2           0  0  0
   -5.1185   -1.6530    4.7509 O   0  0  0  0  0  2           0  0  0
    1.4523    0.0000    0.0000 N   0  0  0  0  0  3           0  0  0
    3.5393    0.7630   -0.0025 N   0  0  0  0  0  3           0  0  0
    3.5500   -0.6068   -0.0019 C   0  0  0  0  0  4           0  0  0
    2.2690    1.1150    0.0000 C   0  0  0  0  0  4           0  0  0
    2.2653   -1.1171    0.0044 C   0  0  0  0  0  4           0  0  0
   -2.1395   -0.0382    5.3866 C   0  0  0  0  0  4           0  0  0
   -1.5933   -0.0262    4.0227 C   0  0  0  0  0  4           0  0  0
   -3.1915   -0.8843    5.8012 C   0  0  0  0  0  4           0  0  0
   -0.5425    0.0000    1.3966 C   0  0  0  0  0  4           0  0  0
   -1.6212    0.8553    6.3456 C   0  0  0  0  0  4           0  0  0
   -0.5245   -0.8631    3.6687 C   0  0  0  0  0  4           0  0  0
   -2.1307    0.8212    3.0426 C   0  0  0  0  0  4           0  0  0
   -3.7155   -0.8169    7.1003 C   0  0  0  0  0  4           0  0  0
   -0.0068   -0.8519    2.3702 C   0  0  0  0  0  4           0  0  0
   -1.6132    0.8328    1.7443 C   0  0  0  0  0  4           0  0  0
   -2.1340    0.9138    7.6451 C   0  0  0  0  0  4           0  0  0
   -3.1826    0.0812    8.0201 C   0  0  0  0  0  4           0  0  0
   -3.7990   -1.8937    4.9177 C   0  0  0  0  0  4           0  0  0
    1.7788   -2.5157    0.0058 C   0  0  0  0  0  4           0  0  0
    1.1835   -4.2419   -1.4980 C   0  0  0  0  0  4           0  0  0
    0.0000   -0.0000    0.0000 C   0  0  0  0  0  4           0  0  0
    1.7865    2.5211   -0.0017 C   0  0  0  0  0  4           0  0  0
    1.5995    3.0696   -1.4127 C   0  0  0  0  0  4           0  0  0
    1.1036    4.5150   -1.4641 C   0  0  0  0  0  4           0  0  0
    0.9283    5.0294   -2.8851 C   0  0  0  0  0  4           0  0  0
  1  7  1  0     0  0
  2 22  2  0     0  0
  3 23  1  0     0  0
  3 24  1  0     0  0
  4 22  1  0     0  0
  5  8  1  0     0  0
  5  9  1  0     0  0
  5 25  1  0     0  0
  6  7  1  0     0  0
  6  8  2  0     0  0
  7  9  2  0     0  0
  8 26  1  0     0  0
  9 23  1  0     0  0
 10 11  1  0     0  0
 10 12  1  0     0  0
 10 14  2  0     0  0
 11 15  2  0     0  0
 11 16  1  0     0  0
 12 17  2  0     0  0
 12 22  1  0     0  0
 13 18  2  0     0  0
 13 19  1  0     0  0
 13 25  1  0     0  0
 14 20  1  0     0  0
 15 18  1  0     0  0
 16 19  2  0     0  0
 17 21  1  0     0  0
 20 21  2  0     0  0
 26 27  1  0     0  0
 27 28  1  0     0  0
 28 29  1  0     0  0
M  END
> <standard_type>
pIC50

> <# Confs.>
25

> <canonical_smiles>
ClC(N=C1CCCC)=C(COC)N1CC2=CC=C(C3=CC=CC=C3C(O)=O)C=C2

> <standard_relation>
=

> <Publication_ID>
nan

> <predicted_activity_value>
6.721246399047171

> <actual_activity_value>
7.00436480540245

> <Compound>
6

> <standard_units>
nM

> hash
1825488953729453991

$$$$
6_
XXILIB    08252103443D 0   0.00000     0.00000

 29 31  0     1  0            999 V2000
    5.0074   -1.4914   -0.0122 Cl  0  0  0  0  0  1           0  0  0
   -0.3420   -2.5128    5.5965 O   0  0  0  0  0  2           0  0  0
    1.6478   -2.9056   -1.3543 O   0  0  0  0  0  2           0  0  0
   -2.4418   -3.3554    5.8753 O   0  0  0  0  0  2           0  0  0
    1.4523    0.0000    0.0000 N   0  0  0  0  0  3           0  0  0
    3.5393    0.7630   -0.0025 N   0  0  0  0  0  3           0  0  0
    3.5500   -0.6068   -0.0019 C   0  0  0  0  0  4           0  0  0
    2.2690    1.1150    0.0000 C   0  0  0  0  0  4           0  0  0
    2.2653   -1.1171    0.0044 C   0  0  0  0  0  4           0  0  0
   -2.1342    0.0438    5.3886 C   0  0  0  0  0  4           0  0  0
   -1.5911    0.0286    4.0236 C   0  0  0  0  0  4           0  0  0
   -2.1342   -1.0800    6.2438 C   0  0  0  0  0  4           0  0  0
   -0.5425    0.0000    1.3966 C   0  0  0  0  0  4           0  0  0
   -2.7193    1.2260    5.8856 C   0  0  0  0  0  4           0  0  0
   -2.1116   -0.8395    3.0522 C   0  0  0  0  0  4           0  0  0
   -0.5409    0.8844    3.6602 C   0  0  0  0  0  4           0  0  0
   -2.7167   -1.0291    7.5185 C   0  0  0  0  0  4           0  0  0
   -1.5950   -0.8519    1.7533 C   0  0  0  0  0  4           0  0  0
   -0.0240    0.8721    2.3617 C   0  0  0  0  0  4           0  0  0
   -3.2883    1.2815    7.1615 C   0  0  0  0  0  4           0  0  0
   -3.2903    0.1538    7.9750 C   0  0  0  0  0  4           0  0  0
   -1.5209   -2.3660    5.8715 C   0  0  0  0  0  4           0  0  0
    1.7788   -2.5157    0.0058 C   0  0  0  0  0  4           0  0  0
    1.1835   -4.2419   -1.4980 C   0  0  0  0  0  4           0  0  0
   -0.0000    0.0000    0.0000 C   0  0  0  0  0  4           0  0  0
    1.7865    2.5211   -0.0017 C   0  0  0  0  0  4           0  0  0
    2.5423    3.3936   -0.9988 C   0  0  0  0  0  4           0  0  0
    2.0795    4.8504   -1.0356 C   0  0  0  0  0  4           0  0  0
    2.8538    5.6911   -2.0399 C   0  0  0  0  0  4           0  0  0
  1  7  1  0     0  0
  2 22  2  0     0  0
  3 23  1  0     0  0
  3 24  1  0     0  0
  4 22  1  0     0  0
  5  8  1  0     0  0
  5  9  1  0     0  0
  5 25  1  0     0  0
  6  7  1  0     0  0
  6  8  2  0     0  0
  7  9  2  0     0  0
  8 26  1  0     0  0
  9 23  1  0     0  0
 10 11  1  0     0  0
 10 12  1  0     0  0
 10 14  2  0     0  0
 11 15  2  0     0  0
 11 16  1  0     0  0
 12 17  2  0     0  0
 12 22  1  0     0  0
 13 18  2  0     0  0
 13 19  1  0     0  0
 13 25  1  0     0  0
 14 20  1  0     0  0
 15 18  1  0     0  0
 16 19  2  0     0  0
 17 21  1  0     0  0
 20 21  2  0     0  0
 26 27  1  0     0  0
 27 28  1  0     0  0
 28 29  1  0     0  0
M  END
> <standard_type>
pIC50

> <# Confs.>
25

> <canonical_smiles>
ClC(N=C1CCCC)=C(COC)N1CC2=CC=C(C3=CC=CC=C3C(O)=O)C=C2

> <standard_relation>
=

> <Publication_ID>
nan

> <predicted_activity_value>
6.721246399047171

> <actual_activity_value>
7.00436480540245

> <Compound>
6

> <standard_units>
nM

> hash
1825488953729453991

$$$$
6_
XXILIB    08252103443D 0   0.00000     0.00000

 29 31  0     1  0            999 V2000
    5.0074    1.4914    0.0122 Cl  0  0  0  0  0  1           0  0  0
   -2.1079   -3.2694    5.3005 O   0  0  0  0  0  2           0  0  0
    1.6404    2.9003   -1.3667 O   0  0  0  0  0  2           0  0  0
   -0.2239   -2.4060    6.2501 O   0  0  0  0  0  2           0  0  0
    1.4523   -0.0000   -0.0000 N   0  0  0  0  0  3           0  0  0
    3.5393   -0.7630    0.0025 N   0  0  0  0  0  3           0  0  0
    3.5500    0.6068    0.0019 C   0  0  0  0  0  4           0  0  0
    2.2690   -1.1150    0.0000 C   0  0  0  0  0  4           0  0  0
    2.2653    1.1171   -0.0044 C   0  0  0  0  0  4           0  0  0
   -2.1342    0.0438    5.3886 C   0  0  0  0  0  4           0  0  0
   -1.5911    0.0286    4.0236 C   0  0  0  0  0  4           0  0  0
   -2.1342   -1.0800    6.2438 C   0  0  0  0  0  4           0  0  0
   -0.5425    0.0000    1.3966 C   0  0  0  0  0  4           0  0  0
   -2.7193    1.2260    5.8856 C   0  0  0  0  0  4           0  0  0
   -2.1116   -0.8395    3.0522 C   0  0  0  0  0  4           0  0  0
   -0.5409    0.8844    3.6602 C   0  0  0  0  0  4           0  0  0
   -2.7167   -1.0291    7.5185 C   0  0  0  0  0  4           0  0  0
   -1.5950   -0.8519    1.7533 C   0  0  0  0  0  4           0  0  0
   -0.0240    0.8721    2.3617 C   0  0  0  0  0  4           0  0  0
   -3.2883    1.2815    7.1615 C   0  0  0  0  0  4           0  0  0
   -3.2903    0.1538    7.9750 C   0  0  0  0  0  4           0  0  0
   -1.5209   -2.3660    5.8715 C   0  0  0  0  0  4           0  0  0
    1.7788    2.5157   -0.0058 C   0  0  0  0  0  4           0  0  0
    1.1753    4.2360   -1.5130 C   0  0  0  0  0  4           0  0  0
   -0.0000    0.0000    0.0000 C   0  0  0  0  0  4           0  0  0
    1.7865   -2.5211    0.0017 C   0  0  0  0  0  4           0  0  0
    1.5995   -3.0696    1.4127 C   0  0  0  0  0  4           0  0  0
    1.1036   -4.5150    1.4641 C   0  0  0  0  0  4           0  0  0
    0.9283   -5.0294    2.8851 C   0  0  0  0  0  4           0  0  0
  1  7  1  0     0  0
  2 22  2  0     0  0
  3 23  1  0     0  0
  3 24  1  0     0  0
  4 22  1  0     0  0
  5  8  1  0     0  0
  5  9  1  0     0  0
  5 25  1  0     0  0
  6  7  1  0     0  0
  6  8  2  0     0  0
  7  9  2  0     0  0
  8 26  1  0     0  0
  9 23  1  0     0  0
 10 11  1  0     0  0
 10 12  1  0     0  0
 10 14  2  0     0  0
 11 15  2  0     0  0
 11 16  1  0     0  0
 12 17  2  0     0  0
 12 22  1  0     0  0
 13 18  2  0     0  0
 13 19  1  0     0  0
 13 25  1  0     0  0
 14 20  1  0     0  0
 15 18  1  0     0  0
 16 19  2  0     0  0
 17 21  1  0     0  0
 20 21  2  0     0  0
 26 27  1  0     0  0
 27 28  1  0     0  0
 28 29  1  0     0  0
M  END
> <standard_type>
pIC50

> <# Confs.>
25

> <canonical_smiles>
ClC(N=C1CCCC)=C(COC)N1CC2=CC=C(C3=CC=CC=C3C(O)=O)C=C2

> <standard_relation>
=

> <Publication_ID>
nan

> <predicted_activity_value>
6.721246399047171

> <actual_activity_value>
7.00436480540245

> <Compound>
6

> <standard_units>
nM

> hash
1825488953729453991

$$$$
6_
XXILIB    08252103443D 0   0.00000     0.00000

 29 31  0     1  0            999 V2000
    5.0074    1.4914    0.0122 Cl  0  0  0  0  0  1           0  0  0
   -4.3523   -1.6406    3.8611 O   0  0  0  0  0  2           0  0  0
    1.6404    2.9003   -1.3667 O   0  0  0  0  0  2           0  0  0
   -3.6600   -3.1330    5.4390 O   0  0  0  0  0  2           0  0  0
    1.4523   -0.0000   -0.0000 N   0  0  0  0  0  3           0  0  0
    3.5393   -0.7630    0.0025 N   0  0  0  0  0  3           0  0  0
    3.5500    0.6068    0.0019 C   0  0  0  0  0  4           0  0  0
    2.2690   -1.1150    0.0000 C   0  0  0  0  0  4           0  0  0
    2.2653    1.1171   -0.0044 C   0  0  0  0  0  4           0  0  0
   -2.1395   -0.0382    5.3866 C   0  0  0  0  0  4           0  0  0
   -1.5933   -0.0262    4.0227 C   0  0  0  0  0  4           0  0  0
   -3.1915   -0.8843    5.8012 C   0  0  0  0  0  4           0  0  0
   -0.5425    0.0000    1.3966 C   0  0  0  0  0  4           0  0  0
   -1.6212    0.8553    6.3456 C   0  0  0  0  0  4           0  0  0
   -0.5245   -0.8631    3.6687 C   0  0  0  0  0  4           0  0  0
   -2.1307    0.8212    3.0426 C   0  0  0  0  0  4           0  0  0
   -3.7155   -0.8169    7.1003 C   0  0  0  0  0  4           0  0  0
   -0.0068   -0.8519    2.3702 C   0  0  0  0  0  4           0  0  0
   -1.6132    0.8328    1.7443 C   0  0  0  0  0  4           0  0  0
   -2.1340    0.9138    7.6451 C   0  0  0  0  0  4           0  0  0
   -3.1826    0.0812    8.0201 C   0  0  0  0  0  4           0  0  0
   -3.7990   -1.8937    4.9177 C   0  0  0  0  0  4           0  0  0
    1.7788    2.5157   -0.0058 C   0  0  0  0  0  4           0  0  0
    1.1753    4.2360   -1.5130 C   0  0  0  0  0  4           0  0  0
    0.0000   -0.0000    0.0000 C   0  0  0  0  0  4           0  0  0
    1.7865   -2.5211    0.0017 C   0  0  0  0  0  4           0  0  0
    2.5400   -3.3953   -0.9956 C   0  0  0  0  0  4           0  0  0
    2.4284   -2.9304   -2.4480 C   0  0  0  0  0  4           0  0  0
    3.1910   -3.8241   -3.4146 C   0  0  0  0  0  4           0  0  0
  1  7  1  0     0  0
  2 22  2  0     0  0
  3 23  1  0     0  0
  3 24  1  0     0  0
  4 22  1  0     0  0
  5  8  1  0     0  0
  5  9  1  0     0  0
  5 25  1  0     0  0
  6  7  1  0     0  0
  6  8  2  0     0  0
  7  9  2  0     0  0
  8 26  1  0     0  0
  9 23  1  0     0  0
 10 11  1  0     0  0
 10 12  1  0     0  0
 10 14  2  0     0  0
 11 15  2  0     0  0
 11 16  1  0     0  0
 12 17  2  0     0  0
 12 22  1  0     0  0
 13 18  2  0     0  0
 13 19  1  0     0  0
 13 25  1  0     0  0
 14 20  1  0     0  0
 15 18  1  0     0  0
 16 19  2  0     0  0
 17 21  1  0     0  0
 20 21  2  0     0  0
 26 27  1  0     0  0
 27 28  1  0     0  0
 28 29  1  0     0  0
M  END
> <standard_type>
pIC50

> <# Confs.>
25

> <canonical_smiles>
ClC(N=C1CCCC)=C(COC)N1CC2=CC=C(C3=CC=CC=C3C(O)=O)C=C2

> <standard_relation>
=

> <Publication_ID>
nan

> <predicted_activity_value>
6.721246399047171

> <actual_activity_value>
7.00436480540245

> <Compound>
6

> <standard_units>
nM

> hash
1825488953729453991

$$$$
6_
XXILIB    08252103443D 0   0.00000     0.00000

 29 31  0     1  0            999 V2000
    5.0074    1.4914    0.0122 Cl  0  0  0  0  0  1           0  0  0
   -3.1897   -2.8184    4.4073 O   0  0  0  0  0  2           0  0  0
    1.6404    2.9003   -1.3667 O   0  0  0  0  0  2           0  0  0
   -5.1185   -1.6530    4.7509 O   0  0  0  0  0  2           0  0  0
    1.4523   -0.0000   -0.0000 N   0  0  0  0  0  3           0  0  0
    3.5393   -0.7630    0.0025 N   0  0  0  0  0  3           0  0  0
    3.5500    0.6068    0.0019 C   0  0  0  0  0  4           0  0  0
    2.2690   -1.1150    0.0000 C   0  0  0  0  0  4           0  0  0
    2.2653    1.1171   -0.0044 C   0  0  0  0  0  4           0  0  0
   -2.1395   -0.0382    5.3866 C   0  0  0  0  0  4           0  0  0
   -1.5933   -0.0262    4.0227 C   0  0  0  0  0  4           0  0  0
   -3.1915   -0.8843    5.8012 C   0  0  0  0  0  4           0  0  0
   -0.5425    0.0000    1.3966 C   0  0  0  0  0  4           0  0  0
   -1.6212    0.8553    6.3456 C   0  0  0  0  0  4           0  0  0
   -0.5245   -0.8631    3.6687 C   0  0  0  0  0  4           0  0  0
   -2.1307    0.8212    3.0426 C   0  0  0  0  0  4           0  0  0
   -3.7155   -0.8169    7.1003 C   0  0  0  0  0  4           0  0  0
   -0.0068   -0.8519    2.3702 C   0  0  0  0  0  4           0  0  0
   -1.6132    0.8328    1.7443 C   0  0  0  0  0  4           0  0  0
   -2.1340    0.9138    7.6451 C   0  0  0  0  0  4           0  0  0
   -3.1826    0.0812    8.0201 C   0  0  0  0  0  4           0  0  0
   -3.7990   -1.8937    4.9177 C   0  0  0  0  0  4           0  0  0
    1.7788    2.5157   -0.0058 C   0  0  0  0  0  4           0  0  0
    1.1753    4.2360   -1.5130 C   0  0  0  0  0  4           0  0  0
    0.0000   -0.0000    0.0000 C   0  0  0  0  0  4           0  0  0
    1.7865   -2.5211    0.0017 C   0  0  0  0  0  4           0  0  0
    2.5400   -3.3953   -0.9956 C   0  0  0  0  0  4           0  0  0
    2.4284   -2.9304   -2.4480 C   0  0  0  0  0  4           0  0  0
    3.1910   -3.8241   -3.4146 C   0  0  0  0  0  4           0  0  0
  1  7  1  0     0  0
  2 22  2  0     0  0
  3 23  1  0     0  0
  3 24  1  0     0  0
  4 22  1  0     0  0
  5  8  1  0     0  0
  5  9  1  0     0  0
  5 25  1  0     0  0
  6  7  1  0     0  0
  6  8  2  0     0  0
  7  9  2  0     0  0
  8 26  1  0     0  0
  9 23  1  0     0  0
 10 11  1  0     0  0
 10 12  1  0     0  0
 10 14  2  0     0  0
 11 15  2  0     0  0
 11 16  1  0     0  0
 12 17  2  0     0  0
 12 22  1  0     0  0
 13 18  2  0     0  0
 13 19  1  0     0  0
 13 25  1  0     0  0
 14 20  1  0     0  0
 15 18  1  0     0  0
 16 19  2  0     0  0
 17 21  1  0     0  0
 20 21  2  0     0  0
 26 27  1  0     0  0
 27 28  1  0     0  0
 28 29  1  0     0  0
M  END
> <standard_type>
pIC50

> <# Confs.>
25

> <canonical_smiles>
ClC(N=C1CCCC)=C(COC)N1CC2=CC=C(C3=CC=CC=C3C(O)=O)C=C2

> <standard_relation>
=

> <Publication_ID>
nan

> <predicted_activity_value>
6.721246399047171

> <actual_activity_value>
7.00436480540245

> <Compound>
6

> <standard_units>
nM

> hash
1825488953729453991

$$$$
6_
XXILIB    08252103443D 0   0.00000     0.00000

 29 31  0     1  0            999 V2000
    5.0074   -1.4914   -0.0122 Cl  0  0  0  0  0  1           0  0  0
    0.9197    0.8711    5.9123 O   0  0  0  0  0  2           0  0  0
    0.7380   -2.5888   -0.9589 O   0  0  0  0  0  2           0  0  0
   -0.2610    2.6193    6.7762 O   0  0  0  0  0  2           0  0  0
    1.4523   -0.0000   -0.0000 N   0  0  0  0  0  3           0  0  0
    3.5393    0.7630   -0.0025 N   0  0  0  0  0  3           0  0  0
    3.5500   -0.6068   -0.0019 C   0  0  0  0  0  4           0  0  0
    2.2690    1.1150    0.0000 C   0  0  0  0  0  4           0  0  0
    2.2653   -1.1171    0.0044 C   0  0  0  0  0  4           0  0  0
   -2.0446   -0.0040    5.4234 C   0  0  0  0  0  4           0  0  0
   -1.5306   -0.0017    4.0471 C   0  0  0  0  0  4           0  0  0
   -1.3710    0.5931    6.5117 C   0  0  0  0  0  4           0  0  0
   -0.5425    0.0000    1.3966 C   0  0  0  0  0  4           0  0  0
   -3.2617   -0.6569    5.7047 C   0  0  0  0  0  4           0  0  0
   -1.2915    1.2039    3.3707 C   0  0  0  0  0  4           0  0  0
   -1.2647   -1.2060    3.3790 C   0  0  0  0  0  4           0  0  0
   -1.8768    0.5138    7.8173 C   0  0  0  0  0  4           0  0  0
   -0.8009    1.2048    2.0617 C   0  0  0  0  0  4           0  0  0
   -0.7743   -1.2055    2.0702 C   0  0  0  0  0  4           0  0  0
   -3.7735   -0.7247    7.0041 C   0  0  0  0  0  4           0  0  0
   -3.0793   -0.1434    8.0593 C   0  0  0  0  0  4           0  0  0
   -0.1130    1.3428    6.3571 C   0  0  0  0  0  4           0  0  0
    1.7788   -2.5157    0.0058 C   0  0  0  0  0  4           0  0  0
    0.1768   -3.8913   -1.0604 C   0  0  0  0  0  4           0  0  0
    0.0000    0.0000    0.0000 C   0  0  0  0  0  4           0  0  0
    1.7865    2.5211   -0.0017 C   0  0  0  0  0  4           0  0  0
    2.5423    3.3936   -0.9988 C   0  0  0  0  0  4           0  0  0
    2.0795    4.8504   -1.0356 C   0  0  0  0  0  4           0  0  0
    2.8538    5.6911   -2.0399 C   0  0  0  0  0  4           0  0  0
  1  7  1  0     0  0
  2 22  2  0     0  0
  3 23  1  0     0  0
  3 24  1  0     0  0
  4 22  1  0     0  0
  5  8  1  0     0  0
  5  9  1  0     0  0
  5 25  1  0     0  0
  6  7  1  0     0  0
  6  8  2  0     0  0
  7  9  2  0     0  0
  8 26  1  0     0  0
  9 23  1  0     0  0
 10 11  1  0     0  0
 10 12  1  0     0  0
 10 14  2  0     0  0
 11 15  2  0     0  0
 11 16  1  0     0  0
 12 17  2  0     0  0
 12 22  1  0     0  0
 13 18  2  0     0  0
 13 19  1  0     0  0
 13 25  1  0     0  0
 14 20  1  0     0  0
 15 18  1  0     0  0
 16 19  2  0     0  0
 17 21  1  0     0  0
 20 21  2  0     0  0
 26 27  1  0     0  0
 27 28  1  0     0  0
 28 29  1  0     0  0
M  END
> <standard_type>
pIC50

> <# Confs.>
25

> <canonical_smiles>
ClC(N=C1CCCC)=C(COC)N1CC2=CC=C(C3=CC=CC=C3C(O)=O)C=C2

> <standard_relation>
=

> <Publication_ID>
nan

> <predicted_activity_value>
6.721246399047171

> <actual_activity_value>
7.00436480540245

> <Compound>
6

> <standard_units>
nM

> hash
1825488953729453991

$$$$
21_
XXILIB    08252103443D 0   0.00000     0.00000

 28 30  0     1  0            999 V2000
    5.0043    1.4905    0.0959 Cl  0  0  0  0  0  1           0  0  0
   -4.2736   -0.8637    9.8685 O   0  0  0  0  0  2           0  0  0
   -3.1027    1.0801   10.0864 O   0  0  0  0  0  2           0  0  0
    1.6062    2.9048    1.4009 O   0  0  0  0  0  2           0  0  0
    1.4523   -0.0000    0.0000 N   0  0  0  0  0  3           0  0  0
    3.5375   -0.7648    0.0278 N   0  0  0  0  0  3           0  0  0
    3.5487    0.6053    0.0496 C   0  0  0  0  0  4           0  0  0
    2.2670   -1.1150    0.0000 C   0  0  0  0  0  4           0  0  0
    2.2644    1.1161    0.0329 C   0  0  0  0  0  4           0  0  0
   -2.0494    0.0028    5.4093 C   0  0  0  0  0  4           0  0  0
   -1.5335    0.0015    4.0456 C   0  0  0  0  0  4           0  0  0
   -3.0422    0.0083    8.0228 C   0  0  0  0  0  4           0  0  0
   -0.5423    0.0000    1.3965 C   0  0  0  0  0  4           0  0  0
   -1.7263    1.0448    6.2964 C   0  0  0  0  0  4           0  0  0
   -2.8782   -1.0386    5.8633 C   0  0  0  0  0  4           0  0  0
   -1.2917   -1.2040    3.3703 C   0  0  0  0  0  4           0  0  0
   -1.2664    1.2059    3.3782 C   0  0  0  0  0  4           0  0  0
   -2.2183    1.0505    7.6024 C   0  0  0  0  0  4           0  0  0
   -3.3741   -1.0407    7.1679 C   0  0  0  0  0  4           0  0  0
   -0.8005   -1.2048    2.0615 C   0  0  0  0  0  4           0  0  0
   -0.7741    1.2054    2.0700 C   0  0  0  0  0  4           0  0  0
   -3.5488    0.0008    9.4059 C   0  0  0  0  0  4           0  0  0
    1.7765    2.5116    0.0457 C   0  0  0  0  0  4           0  0  0
   -0.0000    0.0000    0.0000 C   0  0  0  0  0  4           0  0  0
    1.7769   -2.5197   -0.0285 C   0  0  0  0  0  4           0  0  0
    2.5449   -3.3883   -1.0244 C   0  0  0  0  0  4           0  0  0
    2.4662   -2.9060   -2.4734 C   0  0  0  0  0  4           0  0  0
    3.2415   -3.7939   -3.4353 C   0  0  0  0  0  4           0  0  0
  1  7  1  0     0  0
  2 22  2  0     0  0
  3 22  1  0     0  0
  4 23  1  0     0  0
  5  8  1  0     0  0
  5  9  1  0     0  0
  5 24  1  0     0  0
  6  7  1  0     0  0
  6  8  2  0     0  0
  7  9  2  0     0  0
  8 25  1  0     0  0
  9 23  1  0     0  0
 10 11  1  0     0  0
 10 14  2  0     0  0
 10 15  1  0     0  0
 11 16  2  0     0  0
 11 17  1  0     0  0
 12 18  2  0     0  0
 12 19  1  0     0  0
 12 22  1  0     0  0
 13 20  2  0     0  0
 13 21  1  0     0  0
 13 24  1  0     0  0
 14 18  1  0     0  0
 15 19  2  0     0  0
 16 20  1  0     0  0
 17 21  2  0     0  0
 25 26  1  0     0  0
 26 27  1  0     0  0
 27 28  1  0     0  0
M  END
> <standard_type>
pIC50

> <# Confs.>
25

> <canonical_smiles>
ClC(N=C1CCCC)=C(CO)N1CC2=CC=C(C3=CC=C(C(O)=O)C=C3)C=C2

> <standard_relation>
=

> <Publication_ID>
nan

> <predicted_activity_value>
5.045757490560675

> <actual_activity_value>
4.958607314841775

> <Compound>
21

> <standard_units>
nM

> hash
2020846105828027059

$$$$
21_
XXILIB    08252103443D 0   0.00000     0.00000

 28 30  0     1  0            999 V2000
    5.0043    1.4905    0.0959 Cl  0  0  0  0  0  1           0  0  0
   -4.2733    0.8780    9.8669 O   0  0  0  0  0  2           0  0  0
   -3.1737   -1.1093   10.0616 O   0  0  0  0  0  2           0  0  0
    1.6062    2.9048    1.4009 O   0  0  0  0  0  2           0  0  0
    1.4523   -0.0000    0.0000 N   0  0  0  0  0  3           0  0  0
    3.5375   -0.7648    0.0278 N   0  0  0  0  0  3           0  0  0
    3.5487    0.6053    0.0496 C   0  0  0  0  0  4           0  0  0
    2.2670   -1.1150    0.0000 C   0  0  0  0  0  4           0  0  0
    2.2644    1.1161    0.0329 C   0  0  0  0  0  4           0  0  0
   -2.0494    0.0028    5.4093 C   0  0  0  0  0  4           0  0  0
   -1.5335    0.0015    4.0456 C   0  0  0  0  0  4           0  0  0
   -3.0343    0.0072    8.0258 C   0  0  0  0  0  4           0  0  0
   -0.5423    0.0000    1.3965 C   0  0  0  0  0  4           0  0  0
   -1.7478   -1.0508    6.2903 C   0  0  0  0  0  4           0  0  0
   -2.8594    1.0566    5.8684 C   0  0  0  0  0  4           0  0  0
   -1.2917   -1.2040    3.3703 C   0  0  0  0  0  4           0  0  0
   -1.2664    1.2059    3.3782 C   0  0  0  0  0  4           0  0  0
   -2.2389   -1.0533    7.5967 C   0  0  0  0  0  4           0  0  0
   -3.3549    1.0615    7.1732 C   0  0  0  0  0  4           0  0  0
   -0.8005   -1.2048    2.0615 C   0  0  0  0  0  4           0  0  0
   -0.7741    1.2054    2.0700 C   0  0  0  0  0  4           0  0  0
   -3.5698   -0.0005    9.3979 C   0  0  0  0  0  4           0  0  0
    1.7765    2.5116    0.0457 C   0  0  0  0  0  4           0  0  0
   -0.0000    0.0000    0.0000 C   0  0  0  0  0  4           0  0  0
    1.7769   -2.5197   -0.0285 C   0  0  0  0  0  4           0  0  0
    2.5449   -3.3883   -1.0244 C   0  0  0  0  0  4           0  0  0
    2.4662   -2.9060   -2.4734 C   0  0  0  0  0  4           0  0  0
    3.2415   -3.7939   -3.4353 C   0  0  0  0  0  4           0  0  0
  1  7  1  0     0  0
  2 22  2  0     0  0
  3 22  1  0     0  0
  4 23  1  0     0  0
  5  8  1  0     0  0
  5  9  1  0     0  0
  5 24  1  0     0  0
  6  7  1  0     0  0
  6  8  2  0     0  0
  7  9  2  0     0  0
  8 25  1  0     0  0
  9 23  1  0     0  0
 10 11  1  0     0  0
 10 14  2  0     0  0
 10 15  1  0     0  0
 11 16  2  0     0  0
 11 17  1  0     0  0
 12 18  2  0     0  0
 12 19  1  0     0  0
 12 22  1  0     0  0
 13 20  2  0     0  0
 13 21  1  0     0  0
 13 24  1  0     0  0
 14 18  1  0     0  0
 15 19  2  0     0  0
 16 20  1  0     0  0
 17 21  2  0     0  0
 25 26  1  0     0  0
 26 27  1  0     0  0
 27 28  1  0     0  0
M  END
> <standard_type>
pIC50

> <# Confs.>
25

> <canonical_smiles>
ClC(N=C1CCCC)=C(CO)N1CC2=CC=C(C3=CC=C(C(O)=O)C=C3)C=C2

> <standard_relation>
=

> <Publication_ID>
nan

> <predicted_activity_value>
5.045757490560675

> <actual_activity_value>
4.958607314841775

> <Compound>
21

> <standard_units>
nM

> hash
2020846105828027059

$$$$
21_
XXILIB    08252103443D 0   0.00000     0.00000

 28 30  0     1  0            999 V2000
    5.0043    1.4905    0.0959 Cl  0  0  0  0  0  1           0  0  0
   -3.3331   -0.8635   10.2243 O   0  0  0  0  0  2           0  0  0
   -4.2850    1.1235    9.6391 O   0  0  0  0  0  2           0  0  0
    1.6062    2.9048    1.4009 O   0  0  0  0  0  2           0  0  0
    1.4523   -0.0000    0.0000 N   0  0  0  0  0  3           0  0  0
    3.5375   -0.7648    0.0278 N   0  0  0  0  0  3           0  0  0
    3.5487    0.6053    0.0496 C   0  0  0  0  0  4           0  0  0
    2.2670   -1.1150    0.0000 C   0  0  0  0  0  4           0  0  0
    2.2644    1.1161    0.0329 C   0  0  0  0  0  4           0  0  0
   -2.0494    0.0028    5.4093 C   0  0  0  0  0  4           0  0  0
   -1.5335    0.0015    4.0456 C   0  0  0  0  0  4           0  0  0
   -3.0428    0.0034    8.0226 C   0  0  0  0  0  4           0  0  0
   -0.5423    0.0000    1.3965 C   0  0  0  0  0  4           0  0  0
   -2.8579    1.0576    5.8683 C   0  0  0  0  0  4           0  0  0
   -1.7468   -1.0497    6.2913 C   0  0  0  0  0  4           0  0  0
   -1.2917   -1.2040    3.3703 C   0  0  0  0  0  4           0  0  0
   -1.2664    1.2059    3.3782 C   0  0  0  0  0  4           0  0  0
   -3.3544    1.0627    7.1727 C   0  0  0  0  0  4           0  0  0
   -2.2389   -1.0522    7.5974 C   0  0  0  0  0  4           0  0  0
   -0.8005   -1.2048    2.0615 C   0  0  0  0  0  4           0  0  0
   -0.7741    1.2054    2.0700 C   0  0  0  0  0  4           0  0  0
   -3.5495    0.0138    9.4056 C   0  0  0  0  0  4           0  0  0
    1.7765    2.5116    0.0457 C   0  0  0  0  0  4           0  0  0
   -0.0000    0.0000    0.0000 C   0  0  0  0  0  4           0  0  0
    1.7769   -2.5197   -0.0285 C   0  0  0  0  0  4           0  0  0
    2.5449   -3.3883   -1.0244 C   0  0  0  0  0  4           0  0  0
    2.4662   -2.9060   -2.4734 C   0  0  0  0  0  4           0  0  0
    3.2415   -3.7939   -3.4353 C   0  0  0  0  0  4           0  0  0
  1  7  1  0     0  0
  2 22  2  0     0  0
  3 22  1  0     0  0
  4 23  1  0     0  0
  5  8  1  0     0  0
  5  9  1  0     0  0
  5 24  1  0     0  0
  6  7  1  0     0  0
  6  8  2  0     0  0
  7  9  2  0     0  0
  8 25  1  0     0  0
  9 23  1  0     0  0
 10 11  1  0     0  0
 10 14  2  0     0  0
 10 15  1  0     0  0
 11 16  2  0     0  0
 11 17  1  0     0  0
 12 18  2  0     0  0
 12 19  1  0     0  0
 12 22  1  0     0  0
 13 20  2  0     0  0
 13 21  1  0     0  0
 13 24  1  0     0  0
 14 18  1  0     0  0
 15 19  2  0     0  0
 16 20  1  0     0  0
 17 21  2  0     0  0
 25 26  1  0     0  0
 26 27  1  0     0  0
 27 28  1  0     0  0
M  END
> <standard_type>
pIC50

> <# Confs.>
25

> <canonical_smiles>
ClC(N=C1CCCC)=C(CO)N1CC2=CC=C(C3=CC=C(C(O)=O)C=C3)C=C2

> <standard_relation>
=

> <Publication_ID>
nan

> <predicted_activity_value>
5.045757490560675

> <actual_activity_value>
4.958607314841775

> <Compound>
21

> <standard_units>
nM

> hash
2020846105828027059

$$$$
21_
XXILIB    08252103443D 0   0.00000     0.00000

 28 30  0     1  0            999 V2000
    5.0043    1.4905    0.0959 Cl  0  0  0  0  0  1           0  0  0
   -3.3328    0.8782   10.2227 O   0  0  0  0  0  2           0  0  0
   -4.3560   -1.0660    9.6144 O   0  0  0  0  0  2           0  0  0
    1.6062    2.9048    1.4009 O   0  0  0  0  0  2           0  0  0
    1.4523   -0.0000    0.0000 N   0  0  0  0  0  3           0  0  0
    3.5375   -0.7648    0.0278 N   0  0  0  0  0  3           0  0  0
    3.5487    0.6053    0.0496 C   0  0  0  0  0  4           0  0  0
    2.2670   -1.1150    0.0000 C   0  0  0  0  0  4           0  0  0
    2.2644    1.1161    0.0329 C   0  0  0  0  0  4           0  0  0
   -2.0494    0.0028    5.4093 C   0  0  0  0  0  4           0  0  0
   -1.5335    0.0015    4.0456 C   0  0  0  0  0  4           0  0  0
   -3.0349    0.0023    8.0256 C   0  0  0  0  0  4           0  0  0
   -0.5423    0.0000    1.3965 C   0  0  0  0  0  4           0  0  0
   -2.8794   -1.0379    5.8622 C   0  0  0  0  0  4           0  0  0
   -1.7280    1.0454    6.2964 C   0  0  0  0  0  4           0  0  0
   -1.2917   -1.2040    3.3703 C   0  0  0  0  0  4           0  0  0
   -1.2664    1.2059    3.3782 C   0  0  0  0  0  4           0  0  0
   -3.3749   -1.0411    7.1670 C   0  0  0  0  0  4           0  0  0
   -2.2196    1.0501    7.6026 C   0  0  0  0  0  4           0  0  0
   -0.8005   -1.2048    2.0615 C   0  0  0  0  0  4           0  0  0
   -0.7741    1.2054    2.0700 C   0  0  0  0  0  4           0  0  0
   -3.5705    0.0125    9.3977 C   0  0  0  0  0  4           0  0  0
    1.7765    2.5116    0.0457 C   0  0  0  0  0  4           0  0  0
   -0.0000    0.0000    0.0000 C   0  0  0  0  0  4           0  0  0
    1.7769   -2.5197   -0.0285 C   0  0  0  0  0  4           0  0  0
    2.5449   -3.3883   -1.0244 C   0  0  0  0  0  4           0  0  0
    2.4662   -2.9060   -2.4734 C   0  0  0  0  0  4           0  0  0
    3.2415   -3.7939   -3.4353 C   0  0  0  0  0  4           0  0  0
  1  7  1  0     0  0
  2 22  2  0     0  0
  3 22  1  0     0  0
  4 23  1  0     0  0
  5  8  1  0     0  0
  5  9  1  0     0  0
  5 24  1  0     0  0
  6  7  1  0     0  0
  6  8  2  0     0  0
  7  9  2  0     0  0
  8 25  1  0     0  0
  9 23  1  0     0  0
 10 11  1  0     0  0
 10 14  2  0     0  0
 10 15  1  0     0  0
 11 16  2  0     0  0
 11 17  1  0     0  0
 12 18  2  0     0  0
 12 19  1  0     0  0
 12 22  1  0     0  0
 13 20  2  0     0  0
 13 21  1  0     0  0
 13 24  1  0     0  0
 14 18  1  0     0  0
 15 19  2  0     0  0
 16 20  1  0     0  0
 17 21  2  0     0  0
 25 26  1  0     0  0
 26 27  1  0     0  0
 27 28  1  0     0  0
M  END
> <standard_type>
pIC50

> <# Confs.>
25

> <canonical_smiles>
ClC(N=C1CCCC)=C(CO)N1CC2=CC=C(C3=CC=C(C(O)=O)C=C3)C=C2

> <standard_relation>
=

> <Publication_ID>
nan

> <predicted_activity_value>
5.045757490560675

> <actual_activity_value>
4.958607314841775

> <Compound>
21

> <standard_units>
nM

> hash
2020846105828027059

$$$$
21_
XXILIB    08252103443D 0   0.00000     0.00000

 28 30  0     1  0            999 V2000
    5.0043    1.4905    0.0959 Cl  0  0  0  0  0  1           0  0  0
   -4.2736   -0.8637    9.8685 O   0  0  0  0  0  2           0  0  0
   -3.1027    1.0801   10.0864 O   0  0  0  0  0  2           0  0  0
    1.6062    2.9048    1.4009 O   0  0  0  0  0  2           0  0  0
    1.4523   -0.0000    0.0000 N   0  0  0  0  0  3           0  0  0
    3.5375   -0.7648    0.0278 N   0  0  0  0  0  3           0  0  0
    3.5487    0.6053    0.0496 C   0  0  0  0  0  4           0  0  0
    2.2670   -1.1150    0.0000 C   0  0  0  0  0  4           0  0  0
    2.2644    1.1161    0.0329 C   0  0  0  0  0  4           0  0  0
   -2.0494    0.0028    5.4093 C   0  0  0  0  0  4           0  0  0
   -1.5335    0.0015    4.0456 C   0  0  0  0  0  4           0  0  0
   -3.0422    0.0083    8.0228 C   0  0  0  0  0  4           0  0  0
   -0.5423    0.0000    1.3965 C   0  0  0  0  0  4           0  0  0
   -1.7263    1.0448    6.2964 C   0  0  0  0  0  4           0  0  0
   -2.8782   -1.0386    5.8633 C   0  0  0  0  0  4           0  0  0
   -1.2917   -1.2040    3.3703 C   0  0  0  0  0  4           0  0  0
   -1.2664    1.2059    3.3782 C   0  0  0  0  0  4           0  0  0
   -2.2183    1.0505    7.6024 C   0  0  0  0  0  4           0  0  0
   -3.3741   -1.0407    7.1679 C   0  0  0  0  0  4           0  0  0
   -0.8005   -1.2048    2.0615 C   0  0  0  0  0  4           0  0  0
   -0.7741    1.2054    2.0700 C   0  0  0  0  0  4           0  0  0
   -3.5488    0.0008    9.4059 C   0  0  0  0  0  4           0  0  0
    1.7765    2.5116    0.0457 C   0  0  0  0  0  4           0  0  0
   -0.0000    0.0000    0.0000 C   0  0  0  0  0  4           0  0  0
    1.7769   -2.5197   -0.0285 C   0  0  0  0  0  4           0  0  0
    2.5449   -3.3883   -1.0244 C   0  0  0  0  0  4           0  0  0
    2.0744   -4.8419   -1.0874 C   0  0  0  0  0  4           0  0  0
    2.8608   -5.6753   -2.0882 C   0  0  0  0  0  4           0  0  0
  1  7  1  0     0  0
  2 22  2  0     0  0
  3 22  1  0     0  0
  4 23  1  0     0  0
  5  8  1  0     0  0
  5  9  1  0     0  0
  5 24  1  0     0  0
  6  7  1  0     0  0
  6  8  2  0     0  0
  7  9  2  0     0  0
  8 25  1  0     0  0
  9 23  1  0     0  0
 10 11  1  0     0  0
 10 14  2  0     0  0
 10 15  1  0     0  0
 11 16  2  0     0  0
 11 17  1  0     0  0
 12 18  2  0     0  0
 12 19  1  0     0  0
 12 22  1  0     0  0
 13 20  2  0     0  0
 13 21  1  0     0  0
 13 24  1  0     0  0
 14 18  1  0     0  0
 15 19  2  0     0  0
 16 20  1  0     0  0
 17 21  2  0     0  0
 25 26  1  0     0  0
 26 27  1  0     0  0
 27 28  1  0     0  0
M  END
> <standard_type>
pIC50

> <# Confs.>
25

> <canonical_smiles>
ClC(N=C1CCCC)=C(CO)N1CC2=CC=C(C3=CC=C(C(O)=O)C=C3)C=C2

> <standard_relation>
=

> <Publication_ID>
nan

> <predicted_activity_value>
5.045757490560675

> <actual_activity_value>
4.958607314841775

> <Compound>
21

> <standard_units>
nM

> hash
2020846105828027059

$$$$
21_
XXILIB    08252103443D 0   0.00000     0.00000

 28 30  0     1  0            999 V2000
    5.0043    1.4905    0.0959 Cl  0  0  0  0  0  1           0  0  0
   -4.2733    0.8780    9.8669 O   0  0  0  0  0  2           0  0  0
   -3.1737   -1.1093   10.0616 O   0  0  0  0  0  2           0  0  0
    1.6062    2.9048    1.4009 O   0  0  0  0  0  2           0  0  0
    1.4523   -0.0000    0.0000 N   0  0  0  0  0  3           0  0  0
    3.5375   -0.7648    0.0278 N   0  0  0  0  0  3           0  0  0
    3.5487    0.6053    0.0496 C   0  0  0  0  0  4           0  0  0
    2.2670   -1.1150    0.0000 C   0  0  0  0  0  4           0  0  0
    2.2644    1.1161    0.0329 C   0  0  0  0  0  4           0  0  0
   -2.0494    0.0028    5.4093 C   0  0  0  0  0  4           0  0  0
   -1.5335    0.0015    4.0456 C   0  0  0  0  0  4           0  0  0
   -3.0343    0.0072    8.0258 C   0  0  0  0  0  4           0  0  0
   -0.5423    0.0000    1.3965 C   0  0  0  0  0  4           0  0  0
   -1.7478   -1.0508    6.2903 C   0  0  0  0  0  4           0  0  0
   -2.8594    1.0566    5.8684 C   0  0  0  0  0  4           0  0  0
   -1.2917   -1.2040    3.3703 C   0  0  0  0  0  4           0  0  0
   -1.2664    1.2059    3.3782 C   0  0  0  0  0  4           0  0  0
   -2.2389   -1.0533    7.5967 C   0  0  0  0  0  4           0  0  0
   -3.3549    1.0615    7.1732 C   0  0  0  0  0  4           0  0  0
   -0.8005   -1.2048    2.0615 C   0  0  0  0  0  4           0  0  0
   -0.7741    1.2054    2.0700 C   0  0  0  0  0  4           0  0  0
   -3.5698   -0.0005    9.3979 C   0  0  0  0  0  4           0  0  0
    1.7765    2.5116    0.0457 C   0  0  0  0  0  4           0  0  0
   -0.0000    0.0000    0.0000 C   0  0  0  0  0  4           0  0  0
    1.7769   -2.5197   -0.0285 C   0  0  0  0  0  4           0  0  0
    2.5449   -3.3883   -1.0244 C   0  0  0  0  0  4           0  0  0
    2.0744   -4.8419   -1.0874 C   0  0  0  0  0  4           0  0  0
    2.8608   -5.6753   -2.0882 C   0  0  0  0  0  4           0  0  0
  1  7  1  0     0  0
  2 22  2  0     0  0
  3 22  1  0     0  0
  4 23  1  0     0  0
  5  8  1  0     0  0
  5  9  1  0     0  0
  5 24  1  0     0  0
  6  7  1  0     0  0
  6  8  2  0     0  0
  7  9  2  0     0  0
  8 25  1  0     0  0
  9 23  1  0     0  0
 10 11  1  0     0  0
 10 14  2  0     0  0
 10 15  1  0     0  0
 11 16  2  0     0  0
 11 17  1  0     0  0
 12 18  2  0     0  0
 12 19  1  0     0  0
 12 22  1  0     0  0
 13 20  2  0     0  0
 13 21  1  0     0  0
 13 24  1  0     0  0
 14 18  1  0     0  0
 15 19  2  0     0  0
 16 20  1  0     0  0
 17 21  2  0     0  0
 25 26  1  0     0  0
 26 27  1  0     0  0
 27 28  1  0     0  0
M  END
> <standard_type>
pIC50

> <# Confs.>
25

> <canonical_smiles>
ClC(N=C1CCCC)=C(CO)N1CC2=CC=C(C3=CC=C(C(O)=O)C=C3)C=C2

> <standard_relation>
=

> <Publication_ID>
nan

> <predicted_activity_value>
5.045757490560675

> <actual_activity_value>
4.958607314841775

> <Compound>
21

> <standard_units>
nM

> hash
2020846105828027059

$$$$
21_
XXILIB    08252103443D 0   0.00000     0.00000

 28 30  0     1  0            999 V2000
    5.0043    1.4905    0.0959 Cl  0  0  0  0  0  1           0  0  0
   -3.3331   -0.8635   10.2243 O   0  0  0  0  0  2           0  0  0
   -4.2850    1.1235    9.6391 O   0  0  0  0  0  2           0  0  0
    1.6062    2.9048    1.4009 O   0  0  0  0  0  2           0  0  0
    1.4523   -0.0000    0.0000 N   0  0  0  0  0  3           0  0  0
    3.5375   -0.7648    0.0278 N   0  0  0  0  0  3           0  0  0
    3.5487    0.6053    0.0496 C   0  0  0  0  0  4           0  0  0
    2.2670   -1.1150    0.0000 C   0  0  0  0  0  4           0  0  0
    2.2644    1.1161    0.0329 C   0  0  0  0  0  4           0  0  0
   -2.0494    0.0028    5.4093 C   0  0  0  0  0  4           0  0  0
   -1.5335    0.0015    4.0456 C   0  0  0  0  0  4           0  0  0
   -3.0428    0.0034    8.0226 C   0  0  0  0  0  4           0  0  0
   -0.5423    0.0000    1.3965 C   0  0  0  0  0  4           0  0  0
   -2.8579    1.0576    5.8683 C   0  0  0  0  0  4           0  0  0
   -1.7468   -1.0497    6.2913 C   0  0  0  0  0  4           0  0  0
   -1.2917   -1.2040    3.3703 C   0  0  0  0  0  4           0  0  0
   -1.2664    1.2059    3.3782 C   0  0  0  0  0  4           0  0  0
   -3.3544    1.0627    7.1727 C   0  0  0  0  0  4           0  0  0
   -2.2389   -1.0522    7.5974 C   0  0  0  0  0  4           0  0  0
   -0.8005   -1.2048    2.0615 C   0  0  0  0  0  4           0  0  0
   -0.7741    1.2054    2.0700 C   0  0  0  0  0  4           0  0  0
   -3.5495    0.0138    9.4056 C   0  0  0  0  0  4           0  0  0
    1.7765    2.5116    0.0457 C   0  0  0  0  0  4           0  0  0
   -0.0000    0.0000    0.0000 C   0  0  0  0  0  4           0  0  0
    1.7769   -2.5197   -0.0285 C   0  0  0  0  0  4           0  0  0
    2.5449   -3.3883   -1.0244 C   0  0  0  0  0  4           0  0  0
    2.0744   -4.8419   -1.0874 C   0  0  0  0  0  4           0  0  0
    2.8608   -5.6753   -2.0882 C   0  0  0  0  0  4           0  0  0
  1  7  1  0     0  0
  2 22  2  0     0  0
  3 22  1  0     0  0
  4 23  1  0     0  0
  5  8  1  0     0  0
  5  9  1  0     0  0
  5 24  1  0     0  0
  6  7  1  0     0  0
  6  8  2  0     0  0
  7  9  2  0     0  0
  8 25  1  0     0  0
  9 23  1  0     0  0
 10 11  1  0     0  0
 10 14  2  0     0  0
 10 15  1  0     0  0
 11 16  2  0     0  0
 11 17  1  0     0  0
 12 18  2  0     0  0
 12 19  1  0     0  0
 12 22  1  0     0  0
 13 20  2  0     0  0
 13 21  1  0     0  0
 13 24  1  0     0  0
 14 18  1  0     0  0
 15 19  2  0     0  0
 16 20  1  0     0  0
 17 21  2  0     0  0
 25 26  1  0     0  0
 26 27  1  0     0  0
 27 28  1  0     0  0
M  END
> <standard_type>
pIC50

> <# Confs.>
25

> <canonical_smiles>
ClC(N=C1CCCC)=C(CO)N1CC2=CC=C(C3=CC=C(C(O)=O)C=C3)C=C2

> <standard_relation>
=

> <Publication_ID>
nan

> <predicted_activity_value>
5.045757490560675

> <actual_activity_value>
4.958607314841775

> <Compound>
21

> <standard_units>
nM

> hash
2020846105828027059

$$$$
21_
XXILIB    08252103443D 0   0.00000     0.00000

 28 30  0     1  0            999 V2000
    5.0043    1.4905    0.0959 Cl  0  0  0  0  0  1           0  0  0
   -3.3328    0.8782   10.2227 O   0  0  0  0  0  2           0  0  0
   -4.3560   -1.0660    9.6144 O   0  0  0  0  0  2           0  0  0
    1.6062    2.9048    1.4009 O   0  0  0  0  0  2           0  0  0
    1.4523   -0.0000    0.0000 N   0  0  0  0  0  3           0  0  0
    3.5375   -0.7648    0.0278 N   0  0  0  0  0  3           0  0  0
    3.5487    0.6053    0.0496 C   0  0  0  0  0  4           0  0  0
    2.2670   -1.1150    0.0000 C   0  0  0  0  0  4           0  0  0
    2.2644    1.1161    0.0329 C   0  0  0  0  0  4           0  0  0
   -2.0494    0.0028    5.4093 C   0  0  0  0  0  4           0  0  0
   -1.5335    0.0015    4.0456 C   0  0  0  0  0  4           0  0  0
   -3.0349    0.0023    8.0256 C   0  0  0  0  0  4           0  0  0
   -0.5423    0.0000    1.3965 C   0  0  0  0  0  4           0  0  0
   -2.8794   -1.0379    5.8622 C   0  0  0  0  0  4           0  0  0
   -1.7280    1.0454    6.2964 C   0  0  0  0  0  4           0  0  0
   -1.2917   -1.2040    3.3703 C   0  0  0  0  0  4           0  0  0
   -1.2664    1.2059    3.3782 C   0  0  0  0  0  4           0  0  0
   -3.3749   -1.0411    7.1670 C   0  0  0  0  0  4           0  0  0
   -2.2196    1.0501    7.6026 C   0  0  0  0  0  4           0  0  0
   -0.8005   -1.2048    2.0615 C   0  0  0  0  0  4           0  0  0
   -0.7741    1.2054    2.0700 C   0  0  0  0  0  4           0  0  0
   -3.5705    0.0125    9.3977 C   0  0  0  0  0  4           0  0  0
    1.7765    2.5116    0.0457 C   0  0  0  0  0  4           0  0  0
   -0.0000    0.0000    0.0000 C   0  0  0  0  0  4           0  0  0
    1.7769   -2.5197   -0.0285 C   0  0  0  0  0  4           0  0  0
    2.5449   -3.3883   -1.0244 C   0  0  0  0  0  4           0  0  0
    2.0744   -4.8419   -1.0874 C   0  0  0  0  0  4           0  0  0
    2.8608   -5.6753   -2.0882 C   0  0  0  0  0  4           0  0  0
  1  7  1  0     0  0
  2 22  2  0     0  0
  3 22  1  0     0  0
  4 23  1  0     0  0
  5  8  1  0     0  0
  5  9  1  0     0  0
  5 24  1  0     0  0
  6  7  1  0     0  0
  6  8  2  0     0  0
  7  9  2  0     0  0
  8 25  1  0     0  0
  9 23  1  0     0  0
 10 11  1  0     0  0
 10 14  2  0     0  0
 10 15  1  0     0  0
 11 16  2  0     0  0
 11 17  1  0     0  0
 12 18  2  0     0  0
 12 19  1  0     0  0
 12 22  1  0     0  0
 13 20  2  0     0  0
 13 21  1  0     0  0
 13 24  1  0     0  0
 14 18  1  0     0  0
 15 19  2  0     0  0
 16 20  1  0     0  0
 17 21  2  0     0  0
 25 26  1  0     0  0
 26 27  1  0     0  0
 27 28  1  0     0  0
M  END
> <standard_type>
pIC50

> <# Confs.>
25

> <canonical_smiles>
ClC(N=C1CCCC)=C(CO)N1CC2=CC=C(C3=CC=C(C(O)=O)C=C3)C=C2

> <standard_relation>
=

> <Publication_ID>
nan

> <predicted_activity_value>
5.045757490560675

> <actual_activity_value>
4.958607314841775

> <Compound>
21

> <standard_units>
nM

> hash
2020846105828027059

$$$$
21_
XXILIB    08252103443D 0   0.00000     0.00000

 28 30  0     1  0            999 V2000
    5.0043   -1.4905   -0.0959 Cl  0  0  0  0  0  1           0  0  0
   -4.8477    0.1904    9.6361 O   0  0  0  0  0  2           0  0  0
   -2.7407   -0.4373   10.2388 O   0  0  0  0  0  2           0  0  0
    1.6062   -2.9048   -1.4009 O   0  0  0  0  0  2           0  0  0
    1.4523    0.0000   -0.0000 N   0  0  0  0  0  3           0  0  0
    3.5375    0.7648   -0.0278 N   0  0  0  0  0  3           0  0  0
    3.5487   -0.6053   -0.0496 C   0  0  0  0  0  4           0  0  0
    2.2670    1.1150    0.0000 C   0  0  0  0  0  4           0  0  0
    2.2644   -1.1161   -0.0329 C   0  0  0  0  0  4           0  0  0
   -2.1236   -0.0357    5.3805 C   0  0  0  0  0  4           0  0  0
   -1.5882   -0.0257    4.0244 C   0  0  0  0  0  4           0  0  0
   -3.1483   -0.0503    7.9816 C   0  0  0  0  0  4           0  0  0
   -0.5423   -0.0000    1.3965 C   0  0  0  0  0  4           0  0  0
   -1.3018   -0.3661    6.4726 C   0  0  0  0  0  4           0  0  0
   -3.4717    0.2833    5.6215 C   0  0  0  0  0  4           0  0  0
   -2.1107    0.8401    3.0523 C   0  0  0  0  0  4           0  0  0
   -0.5390   -0.8827    3.6607 C   0  0  0  0  0  4           0  0  0
   -1.8098   -0.3764    7.7725 C   0  0  0  0  0  4           0  0  0
   -3.9878    0.2750    6.9182 C   0  0  0  0  0  4           0  0  0
   -1.5947    0.8519    1.7531 C   0  0  0  0  0  4           0  0  0
   -0.0237   -0.8720    2.3614 C   0  0  0  0  0  4           0  0  0
   -3.6932   -0.0776    9.3498 C   0  0  0  0  0  4           0  0  0
    1.7765   -2.5116   -0.0457 C   0  0  0  0  0  4           0  0  0
    0.0000    0.0000    0.0000 C   0  0  0  0  0  4           0  0  0
    1.7769    2.5197    0.0285 C   0  0  0  0  0  4           0  0  0
    1.5574    3.0922   -1.3717 C   0  0  0  0  0  4           0  0  0
    1.0531    4.5357   -1.3907 C   0  0  0  0  0  4           0  0  0
    0.8463    5.0714   -2.7996 C   0  0  0  0  0  4           0  0  0
  1  7  1  0     0  0
  2 22  2  0     0  0
  3 22  1  0     0  0
  4 23  1  0     0  0
  5  8  1  0     0  0
  5  9  1  0     0  0
  5 24  1  0     0  0
  6  7  1  0     0  0
  6  8  2  0     0  0
  7  9  2  0     0  0
  8 25  1  0     0  0
  9 23  1  0     0  0
 10 11  1  0     0  0
 10 14  2  0     0  0
 10 15  1  0     0  0
 11 16  2  0     0  0
 11 17  1  0     0  0
 12 18  2  0     0  0
 12 19  1  0     0  0
 12 22  1  0     0  0
 13 20  2  0     0  0
 13 21  1  0     0  0
 13 24  1  0     0  0
 14 18  1  0     0  0
 15 19  2  0     0  0
 16 20  1  0     0  0
 17 21  2  0     0  0
 25 26  1  0     0  0
 26 27  1  0     0  0
 27 28  1  0     0  0
M  END
> <standard_type>
pIC50

> <# Confs.>
25

> <canonical_smiles>
ClC(N=C1CCCC)=C(CO)N1CC2=CC=C(C3=CC=C(C(O)=O)C=C3)C=C2

> <standard_relation>
=

> <Publication_ID>
nan

> <predicted_activity_value>
5.045757490560675

> <actual_activity_value>
4.958607314841775

> <Compound>
21

> <standard_units>
nM

> hash
2020846105828027059

$$$$
21_
XXILIB    08252103443D 0   0.00000     0.00000

 28 30  0     1  0            999 V2000
    5.0043   -1.4905   -0.0959 Cl  0  0  0  0  0  1           0  0  0
   -4.8566   -0.2011    9.6309 O   0  0  0  0  0  2           0  0  0
   -2.7301    0.3435   10.2457 O   0  0  0  0  0  2           0  0  0
    1.6062   -2.9048   -1.4009 O   0  0  0  0  0  2           0  0  0
    1.4523    0.0000   -0.0000 N   0  0  0  0  0  3           0  0  0
    3.5375    0.7648   -0.0278 N   0  0  0  0  0  3           0  0  0
    3.5487   -0.6053   -0.0496 C   0  0  0  0  0  4           0  0  0
    2.2670    1.1150    0.0000 C   0  0  0  0  0  4           0  0  0
    2.2644   -1.1161   -0.0329 C   0  0  0  0  0  4           0  0  0
   -2.1272    0.0318    5.3791 C   0  0  0  0  0  4           0  0  0
   -1.5901    0.0237    4.0236 C   0  0  0  0  0  4           0  0  0
   -3.1576    0.0523    7.9779 C   0  0  0  0  0  4           0  0  0
   -0.5423   -0.0000    1.3965 C   0  0  0  0  0  4           0  0  0
   -1.3009    0.3366    6.4752 C   0  0  0  0  0  4           0  0  0
   -3.4809   -0.2665    5.6157 C   0  0  0  0  0  4           0  0  0
   -0.5234    0.8626    3.6686 C   0  0  0  0  0  4           0  0  0
   -2.1287   -0.8227    3.0433 C   0  0  0  0  0  4           0  0  0
   -1.8109    0.3461    7.7743 C   0  0  0  0  0  4           0  0  0
   -3.9987   -0.2596    6.9117 C   0  0  0  0  0  4           0  0  0
   -0.0064    0.8519    2.3699 C   0  0  0  0  0  4           0  0  0
   -1.6128   -0.8327    1.7443 C   0  0  0  0  0  4           0  0  0
   -3.6958    0.0432    9.3490 C   0  0  0  0  0  4           0  0  0
    1.7765   -2.5116   -0.0457 C   0  0  0  0  0  4           0  0  0
    0.0000    0.0000    0.0000 C   0  0  0  0  0  4           0  0  0
    1.7769    2.5197    0.0285 C   0  0  0  0  0  4           0  0  0
    2.5075    3.4156   -0.9715 C   0  0  0  0  0  4           0  0  0
    2.3742    2.9732   -2.4292 C   0  0  0  0  0  4           0  0  0
    3.1134    3.8875   -3.3947 C   0  0  0  0  0  4           0  0  0
  1  7  1  0     0  0
  2 22  2  0     0  0
  3 22  1  0     0  0
  4 23  1  0     0  0
  5  8  1  0     0  0
  5  9  1  0     0  0
  5 24  1  0     0  0
  6  7  1  0     0  0
  6  8  2  0     0  0
  7  9  2  0     0  0
  8 25  1  0     0  0
  9 23  1  0     0  0
 10 11  1  0     0  0
 10 14  2  0     0  0
 10 15  1  0     0  0
 11 16  2  0     0  0
 11 17  1  0     0  0
 12 18  2  0     0  0
 12 19  1  0     0  0
 12 22  1  0     0  0
 13 20  2  0     0  0
 13 21  1  0     0  0
 13 24  1  0     0  0
 14 18  1  0     0  0
 15 19  2  0     0  0
 16 20  1  0     0  0
 17 21  2  0     0  0
 25 26  1  0     0  0
 26 27  1  0     0  0
 27 28  1  0     0  0
M  END
> <standard_type>
pIC50

> <# Confs.>
25

> <canonical_smiles>
ClC(N=C1CCCC)=C(CO)N1CC2=CC=C(C3=CC=C(C(O)=O)C=C3)C=C2

> <standard_relation>
=

> <Publication_ID>
nan

> <predicted_activity_value>
5.045757490560675

> <actual_activity_value>
4.958607314841775

> <Compound>
21

> <standard_units>
nM

> hash
2020846105828027059

$$$$
21_
XXILIB    08252103443D 0   0.00000     0.00000

 28 30  0     1  0            999 V2000
    5.0043   -1.4905   -0.0959 Cl  0  0  0  0  0  1           0  0  0
   -3.0394   -0.3297   10.3461 O   0  0  0  0  0  2           0  0  0
   -4.9931    0.3008    9.3551 O   0  0  0  0  0  2           0  0  0
    1.6062   -2.9048   -1.4009 O   0  0  0  0  0  2           0  0  0
    1.4523    0.0000   -0.0000 N   0  0  0  0  0  3           0  0  0
    3.5375    0.7648   -0.0278 N   0  0  0  0  0  3           0  0  0
    3.5487   -0.6053   -0.0496 C   0  0  0  0  0  4           0  0  0
    2.2670    1.1150    0.0000 C   0  0  0  0  0  4           0  0  0
    2.2644   -1.1161   -0.0329 C   0  0  0  0  0  4           0  0  0
   -2.1236   -0.0357    5.3805 C   0  0  0  0  0  4           0  0  0
   -1.5882   -0.0257    4.0244 C   0  0  0  0  0  4           0  0  0
   -3.1518   -0.0594    7.9802 C   0  0  0  0  0  4           0  0  0
   -0.5423   -0.0000    1.3965 C   0  0  0  0  0  4           0  0  0
   -3.4713    0.2849    5.6210 C   0  0  0  0  0  4           0  0  0
   -1.3019   -0.3645    6.4732 C   0  0  0  0  0  4           0  0  0
   -2.1107    0.8401    3.0523 C   0  0  0  0  0  4           0  0  0
   -0.5390   -0.8827    3.6607 C   0  0  0  0  0  4           0  0  0
   -3.9882    0.2760    6.9174 C   0  0  0  0  0  4           0  0  0
   -1.8107   -0.3754    7.7728 C   0  0  0  0  0  4           0  0  0
   -1.5947    0.8519    1.7531 C   0  0  0  0  0  4           0  0  0
   -0.0237   -0.8720    2.3614 C   0  0  0  0  0  4           0  0  0
   -3.6884   -0.0522    9.3519 C   0  0  0  0  0  4           0  0  0
    1.7765   -2.5116   -0.0457 C   0  0  0  0  0  4           0  0  0
    0.0000    0.0000    0.0000 C   0  0  0  0  0  4           0  0  0
    1.7769    2.5197    0.0285 C   0  0  0  0  0  4           0  0  0
    1.5574    3.0922   -1.3717 C   0  0  0  0  0  4           0  0  0
    1.0531    4.5357   -1.3907 C   0  0  0  0  0  4           0  0  0
    0.8463    5.0714   -2.7996 C   0  0  0  0  0  4           0  0  0
  1  7  1  0     0  0
  2 22  2  0     0  0
  3 22  1  0     0  0
  4 23  1  0     0  0
  5  8  1  0     0  0
  5  9  1  0     0  0
  5 24  1  0     0  0
  6  7  1  0     0  0
  6  8  2  0     0  0
  7  9  2  0     0  0
  8 25  1  0     0  0
  9 23  1  0     0  0
 10 11  1  0     0  0
 10 14  2  0     0  0
 10 15  1  0     0  0
 11 16  2  0     0  0
 11 17  1  0     0  0
 12 18  2  0     0  0
 12 19  1  0     0  0
 12 22  1  0     0  0
 13 20  2  0     0  0
 13 21  1  0     0  0
 13 24  1  0     0  0
 14 18  1  0     0  0
 15 19  2  0     0  0
 16 20  1  0     0  0
 17 21  2  0     0  0
 25 26  1  0     0  0
 26 27  1  0     0  0
 27 28  1  0     0  0
M  END
> <standard_type>
pIC50

> <# Confs.>
25

> <canonical_smiles>
ClC(N=C1CCCC)=C(CO)N1CC2=CC=C(C3=CC=C(C(O)=O)C=C3)C=C2

> <standard_relation>
=

> <Publication_ID>
nan

> <predicted_activity_value>
5.045757490560675

> <actual_activity_value>
4.958607314841775

> <Compound>
21

> <standard_units>
nM

> hash
2020846105828027059

$$$$
21_
XXILIB    08252103443D 0   0.00000     0.00000

 28 30  0     1  0            999 V2000
    5.0043   -1.4905   -0.0959 Cl  0  0  0  0  0  1           0  0  0
   -3.0497    0.3198   10.3438 O   0  0  0  0  0  2           0  0  0
   -5.0224   -0.2271    9.3409 O   0  0  0  0  0  2           0  0  0
    1.6062   -2.9048   -1.4009 O   0  0  0  0  0  2           0  0  0
    1.4523    0.0000   -0.0000 N   0  0  0  0  0  3           0  0  0
    3.5375    0.7648   -0.0278 N   0  0  0  0  0  3           0  0  0
    3.5487   -0.6053   -0.0496 C   0  0  0  0  0  4           0  0  0
    2.2670    1.1150    0.0000 C   0  0  0  0  0  4           0  0  0
    2.2644   -1.1161   -0.0329 C   0  0  0  0  0  4           0  0  0
   -2.1272    0.0318    5.3791 C   0  0  0  0  0  4           0  0  0
   -1.5901    0.0237    4.0236 C   0  0  0  0  0  4           0  0  0
   -3.1565    0.0424    7.9784 C   0  0  0  0  0  4           0  0  0
   -0.5423   -0.0000    1.3965 C   0  0  0  0  0  4           0  0  0
   -3.4812   -0.2650    5.6149 C   0  0  0  0  0  4           0  0  0
   -1.3017    0.3381    6.4755 C   0  0  0  0  0  4           0  0  0
   -0.5234    0.8626    3.6686 C   0  0  0  0  0  4           0  0  0
   -2.1287   -0.8227    3.0433 C   0  0  0  0  0  4           0  0  0
   -3.9995   -0.2590    6.9107 C   0  0  0  0  0  4           0  0  0
   -1.8121    0.3467    7.7745 C   0  0  0  0  0  4           0  0  0
   -0.0064    0.8519    2.3699 C   0  0  0  0  0  4           0  0  0
   -1.6128   -0.8327    1.7443 C   0  0  0  0  0  4           0  0  0
   -3.7033    0.0678    9.3458 C   0  0  0  0  0  4           0  0  0
    1.7765   -2.5116   -0.0457 C   0  0  0  0  0  4           0  0  0
    0.0000    0.0000    0.0000 C   0  0  0  0  0  4           0  0  0
    1.7769    2.5197    0.0285 C   0  0  0  0  0  4           0  0  0
    2.5075    3.4156   -0.9715 C   0  0  0  0  0  4           0  0  0
    2.3742    2.9732   -2.4292 C   0  0  0  0  0  4           0  0  0
    3.1134    3.8875   -3.3947 C   0  0  0  0  0  4           0  0  0
  1  7  1  0     0  0
  2 22  2  0     0  0
  3 22  1  0     0  0
  4 23  1  0     0  0
  5  8  1  0     0  0
  5  9  1  0     0  0
  5 24  1  0     0  0
  6  7  1  0     0  0
  6  8  2  0     0  0
  7  9  2  0     0  0
  8 25  1  0     0  0
  9 23  1  0     0  0
 10 11  1  0     0  0
 10 14  2  0     0  0
 10 15  1  0     0  0
 11 16  2  0     0  0
 11 17  1  0     0  0
 12 18  2  0     0  0
 12 19  1  0     0  0
 12 22  1  0     0  0
 13 20  2  0     0  0
 13 21  1  0     0  0
 13 24  1  0     0  0
 14 18  1  0     0  0
 15 19  2  0     0  0
 16 20  1  0     0  0
 17 21  2  0     0  0
 25 26  1  0     0  0
 26 27  1  0     0  0
 27 28  1  0     0  0
M  END
> <standard_type>
pIC50

> <# Confs.>
25

> <canonical_smiles>
ClC(N=C1CCCC)=C(CO)N1CC2=CC=C(C3=CC=C(C(O)=O)C=C3)C=C2

> <standard_relation>
=

> <Publication_ID>
nan

> <predicted_activity_value>
5.045757490560675

> <actual_activity_value>
4.958607314841775

> <Compound>
21

> <standard_units>
nM

> hash
2020846105828027059

$$$$
21_
XXILIB    08252103443D 0   0.00000     0.00000

 28 30  0     1  0            999 V2000
    5.0043   -1.4905   -0.0959 Cl  0  0  0  0  0  1           0  0  0
   -4.1969   -0.9120    9.8966 O   0  0  0  0  0  2           0  0  0
   -3.5307    1.2680    9.9230 O   0  0  0  0  0  2           0  0  0
    1.6062   -2.9048   -1.4009 O   0  0  0  0  0  2           0  0  0
    1.4523    0.0000   -0.0000 N   0  0  0  0  0  3           0  0  0
    3.5375    0.7648   -0.0278 N   0  0  0  0  0  3           0  0  0
    3.5487   -0.6053   -0.0496 C   0  0  0  0  0  4           0  0  0
    2.2670    1.1150    0.0000 C   0  0  0  0  0  4           0  0  0
    2.2644   -1.1161   -0.0329 C   0  0  0  0  0  4           0  0  0
   -2.1272    0.0318    5.3791 C   0  0  0  0  0  4           0  0  0
   -1.5901    0.0237    4.0236 C   0  0  0  0  0  4           0  0  0
   -3.1613    0.0493    7.9765 C   0  0  0  0  0  4           0  0  0
   -0.5423   -0.0000    1.3965 C   0  0  0  0  0  4           0  0  0
   -2.0861    1.2011    6.1589 C   0  0  0  0  0  4           0  0  0
   -2.6948   -1.1297    5.9323 C   0  0  0  0  0  4           0  0  0
   -0.5234    0.8626    3.6686 C   0  0  0  0  0  4           0  0  0
   -2.1287   -0.8227    3.0433 C   0  0  0  0  0  4           0  0  0
   -2.5996    1.2136    7.4566 C   0  0  0  0  0  4           0  0  0
   -3.2101   -1.1259    7.2294 C   0  0  0  0  0  4           0  0  0
   -0.0064    0.8519    2.3699 C   0  0  0  0  0  4           0  0  0
   -1.6128   -0.8327    1.7443 C   0  0  0  0  0  4           0  0  0
   -3.6878    0.0529    9.3521 C   0  0  0  0  0  4           0  0  0
    1.7765   -2.5116   -0.0457 C   0  0  0  0  0  4           0  0  0
    0.0000    0.0000    0.0000 C   0  0  0  0  0  4           0  0  0
    1.7769    2.5197    0.0285 C   0  0  0  0  0  4           0  0  0
    2.5075    3.4156   -0.9715 C   0  0  0  0  0  4           0  0  0
    2.3742    2.9732   -2.4292 C   0  0  0  0  0  4           0  0  0
    3.1134    3.8875   -3.3947 C   0  0  0  0  0  4           0  0  0
  1  7  1  0     0  0
  2 22  2  0     0  0
  3 22  1  0     0  0
  4 23  1  0     0  0
  5  8  1  0     0  0
  5  9  1  0     0  0
  5 24  1  0     0  0
  6  7  1  0     0  0
  6  8  2  0     0  0
  7  9  2  0     0  0
  8 25  1  0     0  0
  9 23  1  0     0  0
 10 11  1  0     0  0
 10 14  2  0     0  0
 10 15  1  0     0  0
 11 16  2  0     0  0
 11 17  1  0     0  0
 12 18  2  0     0  0
 12 19  1  0     0  0
 12 22  1  0     0  0
 13 20  2  0     0  0
 13 21  1  0     0  0
 13 24  1  0     0  0
 14 18  1  0     0  0
 15 19  2  0     0  0
 16 20  1  0     0  0
 17 21  2  0     0  0
 25 26  1  0     0  0
 26 27  1  0     0  0
 27 28  1  0     0  0
M  END
> <standard_type>
pIC50

> <# Confs.>
25

> <canonical_smiles>
ClC(N=C1CCCC)=C(CO)N1CC2=CC=C(C3=CC=C(C(O)=O)C=C3)C=C2

> <standard_relation>
=

> <Publication_ID>
nan

> <predicted_activity_value>
5.045757490560675

> <actual_activity_value>
4.958607314841775

> <Compound>
21

> <standard_units>
nM

> hash
2020846105828027059

$$$$
21_
XXILIB    08252103443D 0   0.00000     0.00000

 28 30  0     1  0            999 V2000
    5.0043   -1.4905   -0.0959 Cl  0  0  0  0  0  1           0  0  0
   -4.1882    0.9016    9.9016 O   0  0  0  0  0  2           0  0  0
   -3.5985   -1.3004    9.8938 O   0  0  0  0  0  2           0  0  0
    1.6062   -2.9048   -1.4009 O   0  0  0  0  0  2           0  0  0
    1.4523    0.0000   -0.0000 N   0  0  0  0  0  3           0  0  0
    3.5375    0.7648   -0.0278 N   0  0  0  0  0  3           0  0  0
    3.5487   -0.6053   -0.0496 C   0  0  0  0  0  4           0  0  0
    2.2670    1.1150    0.0000 C   0  0  0  0  0  4           0  0  0
    2.2644   -1.1161   -0.0329 C   0  0  0  0  0  4           0  0  0
   -2.1236   -0.0357    5.3805 C   0  0  0  0  0  4           0  0  0
   -1.5882   -0.0257    4.0244 C   0  0  0  0  0  4           0  0  0
   -3.1455   -0.0542    7.9827 C   0  0  0  0  0  4           0  0  0
   -0.5423   -0.0000    1.3965 C   0  0  0  0  0  4           0  0  0
   -2.1039   -1.2126    6.1498 C   0  0  0  0  0  4           0  0  0
   -2.6709    1.1307    5.9438 C   0  0  0  0  0  4           0  0  0
   -2.1107    0.8401    3.0523 C   0  0  0  0  0  4           0  0  0
   -0.5390   -0.8827    3.6607 C   0  0  0  0  0  4           0  0  0
   -2.6147   -1.2266    7.4485 C   0  0  0  0  0  4           0  0  0
   -3.1841    1.1252    7.2417 C   0  0  0  0  0  4           0  0  0
   -1.5947    0.8519    1.7531 C   0  0  0  0  0  4           0  0  0
   -0.0237   -0.8720    2.3614 C   0  0  0  0  0  4           0  0  0
   -3.7023   -0.0690    9.3463 C   0  0  0  0  0  4           0  0  0
    1.7765   -2.5116   -0.0457 C   0  0  0  0  0  4           0  0  0
    0.0000    0.0000    0.0000 C   0  0  0  0  0  4           0  0  0
    1.7769    2.5197    0.0285 C   0  0  0  0  0  4           0  0  0
    1.5574    3.0922   -1.3717 C   0  0  0  0  0  4           0  0  0
    1.0531    4.5357   -1.3907 C   0  0  0  0  0  4           0  0  0
    0.8463    5.0714   -2.7996 C   0  0  0  0  0  4           0  0  0
  1  7  1  0     0  0
  2 22  2  0     0  0
  3 22  1  0     0  0
  4 23  1  0     0  0
  5  8  1  0     0  0
  5  9  1  0     0  0
  5 24  1  0     0  0
  6  7  1  0     0  0
  6  8  2  0     0  0
  7  9  2  0     0  0
  8 25  1  0     0  0
  9 23  1  0     0  0
 10 11  1  0     0  0
 10 14  2  0     0  0
 10 15  1  0     0  0
 11 16  2  0     0  0
 11 17  1  0     0  0
 12 18  2  0     0  0
 12 19  1  0     0  0
 12 22  1  0     0  0
 13 20  2  0     0  0
 13 21  1  0     0  0
 13 24  1  0     0  0
 14 18  1  0     0  0
 15 19  2  0     0  0
 16 20  1  0     0  0
 17 21  2  0     0  0
 25 26  1  0     0  0
 26 27  1  0     0  0
 27 28  1  0     0  0
M  END
> <standard_type>
pIC50

> <# Confs.>
25

> <canonical_smiles>
ClC(N=C1CCCC)=C(CO)N1CC2=CC=C(C3=CC=C(C(O)=O)C=C3)C=C2

> <standard_relation>
=

> <Publication_ID>
nan

> <predicted_activity_value>
5.045757490560675

> <actual_activity_value>
4.958607314841775

> <Compound>
21

> <standard_units>
nM

> hash
2020846105828027059

$$$$
21_
XXILIB    08252103443D 0   0.00000     0.00000

 28 30  0     1  0            999 V2000
    5.0043   -1.4905   -0.0959 Cl  0  0  0  0  0  1           0  0  0
   -3.7094    1.0307   10.0781 O   0  0  0  0  0  2           0  0  0
   -4.2218   -1.1516    9.6636 O   0  0  0  0  0  2           0  0  0
    1.6062   -2.9048   -1.4009 O   0  0  0  0  0  2           0  0  0
    1.4523    0.0000   -0.0000 N   0  0  0  0  0  3           0  0  0
    3.5375    0.7648   -0.0278 N   0  0  0  0  0  3           0  0  0
    3.5487   -0.6053   -0.0496 C   0  0  0  0  0  4           0  0  0
    2.2670    1.1150    0.0000 C   0  0  0  0  0  4           0  0  0
    2.2644   -1.1161   -0.0329 C   0  0  0  0  0  4           0  0  0
   -2.1272    0.0318    5.3791 C   0  0  0  0  0  4           0  0  0
   -1.5901    0.0237    4.0236 C   0  0  0  0  0  4           0  0  0
   -3.1528    0.0454    7.9799 C   0  0  0  0  0  4           0  0  0
   -0.5423   -0.0000    1.3965 C   0  0  0  0  0  4           0  0  0
   -2.6961   -1.1295    5.9312 C   0  0  0  0  0  4           0  0  0
   -2.0878    1.2013    6.1589 C   0  0  0  0  0  4           0  0  0
   -0.5234    0.8626    3.6686 C   0  0  0  0  0  4           0  0  0
   -2.1287   -0.8227    3.0433 C   0  0  0  0  0  4           0  0  0
   -3.2108   -1.1265    7.2284 C   0  0  0  0  0  4           0  0  0
   -2.6007    1.2130    7.4569 C   0  0  0  0  0  4           0  0  0
   -0.0064    0.8519    2.3699 C   0  0  0  0  0  4           0  0  0
   -1.6128   -0.8327    1.7443 C   0  0  0  0  0  4           0  0  0
   -3.7114    0.0582    9.3427 C   0  0  0  0  0  4           0  0  0
    1.7765   -2.5116   -0.0457 C   0  0  0  0  0  4           0  0  0
    0.0000    0.0000    0.0000 C   0  0  0  0  0  4           0  0  0
    1.7769    2.5197    0.0285 C   0  0  0  0  0  4           0  0  0
    2.5075    3.4156   -0.9715 C   0  0  0  0  0  4           0  0  0
    2.3742    2.9732   -2.4292 C   0  0  0  0  0  4           0  0  0
    3.1134    3.8875   -3.3947 C   0  0  0  0  0  4           0  0  0
  1  7  1  0     0  0
  2 22  2  0     0  0
  3 22  1  0     0  0
  4 23  1  0     0  0
  5  8  1  0     0  0
  5  9  1  0     0  0
  5 24  1  0     0  0
  6  7  1  0     0  0
  6  8  2  0     0  0
  7  9  2  0     0  0
  8 25  1  0     0  0
  9 23  1  0     0  0
 10 11  1  0     0  0
 10 14  2  0     0  0
 10 15  1  0     0  0
 11 16  2  0     0  0
 11 17  1  0     0  0
 12 18  2  0     0  0
 12 19  1  0     0  0
 12 22  1  0     0  0
 13 20  2  0     0  0
 13 21  1  0     0  0
 13 24  1  0     0  0
 14 18  1  0     0  0
 15 19  2  0     0  0
 16 20  1  0     0  0
 17 21  2  0     0  0
 25 26  1  0     0  0
 26 27  1  0     0  0
 27 28  1  0     0  0
M  END
> <standard_type>
pIC50

> <# Confs.>
25

> <canonical_smiles>
ClC(N=C1CCCC)=C(CO)N1CC2=CC=C(C3=CC=C(C(O)=O)C=C3)C=C2

> <standard_relation>
=

> <Publication_ID>
nan

> <predicted_activity_value>
5.045757490560675

> <actual_activity_value>
4.958607314841775

> <Compound>
21

> <standard_units>
nM

> hash
2020846105828027059

$$$$
21_
XXILIB    08252103443D 0   0.00000     0.00000

 28 30  0     1  0            999 V2000
    5.0043   -1.4905   -0.0959 Cl  0  0  0  0  0  1           0  0  0
   -3.6989   -1.0409   10.0805 O   0  0  0  0  0  2           0  0  0
   -4.1354    1.1640    9.7000 O   0  0  0  0  0  2           0  0  0
    1.6062   -2.9048   -1.4009 O   0  0  0  0  0  2           0  0  0
    1.4523    0.0000   -0.0000 N   0  0  0  0  0  3           0  0  0
    3.5375    0.7648   -0.0278 N   0  0  0  0  0  3           0  0  0
    3.5487   -0.6053   -0.0496 C   0  0  0  0  0  4           0  0  0
    2.2670    1.1150    0.0000 C   0  0  0  0  0  4           0  0  0
    2.2644   -1.1161   -0.0329 C   0  0  0  0  0  4           0  0  0
   -2.1236   -0.0357    5.3805 C   0  0  0  0  0  4           0  0  0
   -1.5882   -0.0257    4.0244 C   0  0  0  0  0  4           0  0  0
   -3.1546   -0.0555    7.9791 C   0  0  0  0  0  4           0  0  0
   -0.5423   -0.0000    1.3965 C   0  0  0  0  0  4           0  0  0
   -2.6693    1.1313    5.9438 C   0  0  0  0  0  4           0  0  0
   -2.1027   -1.2119    6.1509 C   0  0  0  0  0  4           0  0  0
   -2.1107    0.8401    3.0523 C   0  0  0  0  0  4           0  0  0
   -0.5390   -0.8827    3.6607 C   0  0  0  0  0  4           0  0  0
   -3.1834    1.1262    7.2413 C   0  0  0  0  0  4           0  0  0
   -2.6144   -1.2255    7.4493 C   0  0  0  0  0  4           0  0  0
   -1.5947    0.8519    1.7531 C   0  0  0  0  0  4           0  0  0
   -0.0237   -0.8720    2.3614 C   0  0  0  0  0  4           0  0  0
   -3.6794   -0.0609    9.3554 C   0  0  0  0  0  4           0  0  0
    1.7765   -2.5116   -0.0457 C   0  0  0  0  0  4           0  0  0
    0.0000    0.0000    0.0000 C   0  0  0  0  0  4           0  0  0
    1.7769    2.5197    0.0285 C   0  0  0  0  0  4           0  0  0
    1.5574    3.0922   -1.3717 C   0  0  0  0  0  4           0  0  0
    1.0531    4.5357   -1.3907 C   0  0  0  0  0  4           0  0  0
    0.8463    5.0714   -2.7996 C   0  0  0  0  0  4           0  0  0
  1  7  1  0     0  0
  2 22  2  0     0  0
  3 22  1  0     0  0
  4 23  1  0     0  0
  5  8  1  0     0  0
  5  9  1  0     0  0
  5 24  1  0     0  0
  6  7  1  0     0  0
  6  8  2  0     0  0
  7  9  2  0     0  0
  8 25  1  0     0  0
  9 23  1  0     0  0
 10 11  1  0     0  0
 10 14  2  0     0  0
 10 15  1  0     0  0
 11 16  2  0     0  0
 11 17  1  0     0  0
 12 18  2  0     0  0
 12 19  1  0     0  0
 12 22  1  0     0  0
 13 20  2  0     0  0
 13 21  1  0     0  0
 13 24  1  0     0  0
 14 18  1  0     0  0
 15 19  2  0     0  0
 16 20  1  0     0  0
 17 21  2  0     0  0
 25 26  1  0     0  0
 26 27  1  0     0  0
 27 28  1  0     0  0
M  END
> <standard_type>
pIC50

> <# Confs.>
25

> <canonical_smiles>
ClC(N=C1CCCC)=C(CO)N1CC2=CC=C(C3=CC=C(C(O)=O)C=C3)C=C2

> <standard_relation>
=

> <Publication_ID>
nan

> <predicted_activity_value>
5.045757490560675

> <actual_activity_value>
4.958607314841775

> <Compound>
21

> <standard_units>
nM

> hash
2020846105828027059

$$$$
21_
XXILIB    08252103443D 0   0.00000     0.00000

 28 30  0     1  0            999 V2000
    5.0043   -1.4905   -0.0959 Cl  0  0  0  0  0  1           0  0  0
   -4.2733    0.8780    9.8669 O   0  0  0  0  0  2           0  0  0
   -3.1737   -1.1093   10.0616 O   0  0  0  0  0  2           0  0  0
    0.7114   -2.5958   -0.9832 O   0  0  0  0  0  2           0  0  0
    1.4523    0.0000   -0.0000 N   0  0  0  0  0  3           0  0  0
    3.5375    0.7648   -0.0278 N   0  0  0  0  0  3           0  0  0
    3.5487   -0.6053   -0.0496 C   0  0  0  0  0  4           0  0  0
    2.2670    1.1150    0.0000 C   0  0  0  0  0  4           0  0  0
    2.2644   -1.1161   -0.0329 C   0  0  0  0  0  4           0  0  0
   -2.0494    0.0028    5.4093 C   0  0  0  0  0  4           0  0  0
   -1.5335    0.0015    4.0456 C   0  0  0  0  0  4           0  0  0
   -3.0343    0.0072    8.0258 C   0  0  0  0  0  4           0  0  0
   -0.5423    0.0000    1.3965 C   0  0  0  0  0  4           0  0  0
   -1.7478   -1.0508    6.2903 C   0  0  0  0  0  4           0  0  0
   -2.8594    1.0566    5.8684 C   0  0  0  0  0  4           0  0  0
   -1.2917   -1.2040    3.3703 C   0  0  0  0  0  4           0  0  0
   -1.2664    1.2059    3.3782 C   0  0  0  0  0  4           0  0  0
   -2.2389   -1.0533    7.5967 C   0  0  0  0  0  4           0  0  0
   -3.3549    1.0615    7.1732 C   0  0  0  0  0  4           0  0  0
   -0.8005   -1.2048    2.0615 C   0  0  0  0  0  4           0  0  0
   -0.7741    1.2054    2.0700 C   0  0  0  0  0  4           0  0  0
   -3.5698   -0.0005    9.3979 C   0  0  0  0  0  4           0  0  0
    1.7765   -2.5116   -0.0457 C   0  0  0  0  0  4           0  0  0
   -0.0000    0.0000    0.0000 C   0  0  0  0  0  4           0  0  0
    1.7769    2.5197    0.0285 C   0  0  0  0  0  4           0  0  0
    2.5075    3.4156   -0.9715 C   0  0  0  0  0  4           0  0  0
    2.3742    2.9732   -2.4292 C   0  0  0  0  0  4           0  0  0
    3.1134    3.8875   -3.3947 C   0  0  0  0  0  4           0  0  0
  1  7  1  0     0  0
  2 22  2  0     0  0
  3 22  1  0     0  0
  4 23  1  0     0  0
  5  8  1  0     0  0
  5  9  1  0     0  0
  5 24  1  0     0  0
  6  7  1  0     0  0
  6  8  2  0     0  0
  7  9  2  0     0  0
  8 25  1  0     0  0
  9 23  1  0     0  0
 10 11  1  0     0  0
 10 14  2  0     0  0
 10 15  1  0     0  0
 11 16  2  0     0  0
 11 17  1  0     0  0
 12 18  2  0     0  0
 12 19  1  0     0  0
 12 22  1  0     0  0
 13 20  2  0     0  0
 13 21  1  0     0  0
 13 24  1  0     0  0
 14 18  1  0     0  0
 15 19  2  0     0  0
 16 20  1  0     0  0
 17 21  2  0     0  0
 25 26  1  0     0  0
 26 27  1  0     0  0
 27 28  1  0     0  0
M  END
> <standard_type>
pIC50

> <# Confs.>
25

> <canonical_smiles>
ClC(N=C1CCCC)=C(CO)N1CC2=CC=C(C3=CC=C(C(O)=O)C=C3)C=C2

> <standard_relation>
=

> <Publication_ID>
nan

> <predicted_activity_value>
5.045757490560675

> <actual_activity_value>
4.958607314841775

> <Compound>
21

> <standard_units>
nM

> hash
2020846105828027059

$$$$
21_
XXILIB    08252103443D 0   0.00000     0.00000

 28 30  0     1  0            999 V2000
    5.0043   -1.4905   -0.0959 Cl  0  0  0  0  0  1           0  0  0
   -4.8477    0.1904    9.6361 O   0  0  0  0  0  2           0  0  0
   -2.7407   -0.4373   10.2388 O   0  0  0  0  0  2           0  0  0
    1.6062   -2.9048   -1.4009 O   0  0  0  0  0  2           0  0  0
    1.4523    0.0000   -0.0000 N   0  0  0  0  0  3           0  0  0
    3.5375    0.7648   -0.0278 N   0  0  0  0  0  3           0  0  0
    3.5487   -0.6053   -0.0496 C   0  0  0  0  0  4           0  0  0
    2.2670    1.1150    0.0000 C   0  0  0  0  0  4           0  0  0
    2.2644   -1.1161   -0.0329 C   0  0  0  0  0  4           0  0  0
   -2.1236   -0.0357    5.3805 C   0  0  0  0  0  4           0  0  0
   -1.5882   -0.0257    4.0244 C   0  0  0  0  0  4           0  0  0
   -3.1483   -0.0503    7.9816 C   0  0  0  0  0  4           0  0  0
   -0.5423   -0.0000    1.3965 C   0  0  0  0  0  4           0  0  0
   -1.3018   -0.3661    6.4726 C   0  0  0  0  0  4           0  0  0
   -3.4717    0.2833    5.6215 C   0  0  0  0  0  4           0  0  0
   -2.1107    0.8401    3.0523 C   0  0  0  0  0  4           0  0  0
   -0.5390   -0.8827    3.6607 C   0  0  0  0  0  4           0  0  0
   -1.8098   -0.3764    7.7725 C   0  0  0  0  0  4           0  0  0
   -3.9878    0.2750    6.9182 C   0  0  0  0  0  4           0  0  0
   -1.5947    0.8519    1.7531 C   0  0  0  0  0  4           0  0  0
   -0.0237   -0.8720    2.3614 C   0  0  0  0  0  4           0  0  0
   -3.6932   -0.0776    9.3498 C   0  0  0  0  0  4           0  0  0
    1.7765   -2.5116   -0.0457 C   0  0  0  0  0  4           0  0  0
    0.0000    0.0000    0.0000 C   0  0  0  0  0  4           0  0  0
    1.7769    2.5197    0.0285 C   0  0  0  0  0  4           0  0  0
    1.6104    3.0535    1.4510 C   0  0  0  0  0  4           0  0  0
    1.1078    4.4957    1.5285 C   0  0  0  0  0  4           0  0  0
    0.9543    4.9925    2.9583 C   0  0  0  0  0  4           0  0  0
  1  7  1  0     0  0
  2 22  2  0     0  0
  3 22  1  0     0  0
  4 23  1  0     0  0
  5  8  1  0     0  0
  5  9  1  0     0  0
  5 24  1  0     0  0
  6  7  1  0     0  0
  6  8  2  0     0  0
  7  9  2  0     0  0
  8 25  1  0     0  0
  9 23  1  0     0  0
 10 11  1  0     0  0
 10 14  2  0     0  0
 10 15  1  0     0  0
 11 16  2  0     0  0
 11 17  1  0     0  0
 12 18  2  0     0  0
 12 19  1  0     0  0
 12 22  1  0     0  0
 13 20  2  0     0  0
 13 21  1  0     0  0
 13 24  1  0     0  0
 14 18  1  0     0  0
 15 19  2  0     0  0
 16 20  1  0     0  0
 17 21  2  0     0  0
 25 26  1  0     0  0
 26 27  1  0     0  0
 27 28  1  0     0  0
M  END
> <standard_type>
pIC50

> <# Confs.>
25

> <canonical_smiles>
ClC(N=C1CCCC)=C(CO)N1CC2=CC=C(C3=CC=C(C(O)=O)C=C3)C=C2

> <standard_relation>
=

> <Publication_ID>
nan

> <predicted_activity_value>
5.045757490560675

> <actual_activity_value>
4.958607314841775

> <Compound>
21

> <standard_units>
nM

> hash
2020846105828027059

$$$$
21_
XXILIB    08252103443D 0   0.00000     0.00000

 28 30  0     1  0            999 V2000
    5.0043   -1.4905   -0.0959 Cl  0  0  0  0  0  1           0  0  0
   -3.3331   -0.8635   10.2243 O   0  0  0  0  0  2           0  0  0
   -4.2850    1.1235    9.6391 O   0  0  0  0  0  2           0  0  0
    0.7114   -2.5958   -0.9832 O   0  0  0  0  0  2           0  0  0
    1.4523    0.0000   -0.0000 N   0  0  0  0  0  3           0  0  0
    3.5375    0.7648   -0.0278 N   0  0  0  0  0  3           0  0  0
    3.5487   -0.6053   -0.0496 C   0  0  0  0  0  4           0  0  0
    2.2670    1.1150    0.0000 C   0  0  0  0  0  4           0  0  0
    2.2644   -1.1161   -0.0329 C   0  0  0  0  0  4           0  0  0
   -2.0494    0.0028    5.4093 C   0  0  0  0  0  4           0  0  0
   -1.5335    0.0015    4.0456 C   0  0  0  0  0  4           0  0  0
   -3.0428    0.0034    8.0226 C   0  0  0  0  0  4           0  0  0
   -0.5423    0.0000    1.3965 C   0  0  0  0  0  4           0  0  0
   -2.8579    1.0576    5.8683 C   0  0  0  0  0  4           0  0  0
   -1.7468   -1.0497    6.2913 C   0  0  0  0  0  4           0  0  0
   -1.2917   -1.2040    3.3703 C   0  0  0  0  0  4           0  0  0
   -1.2664    1.2059    3.3782 C   0  0  0  0  0  4           0  0  0
   -3.3544    1.0627    7.1727 C   0  0  0  0  0  4           0  0  0
   -2.2389   -1.0522    7.5974 C   0  0  0  0  0  4           0  0  0
   -0.8005   -1.2048    2.0615 C   0  0  0  0  0  4           0  0  0
   -0.7741    1.2054    2.0700 C   0  0  0  0  0  4           0  0  0
   -3.5495    0.0138    9.4056 C   0  0  0  0  0  4           0  0  0
    1.7765   -2.5116   -0.0457 C   0  0  0  0  0  4           0  0  0
   -0.0000    0.0000    0.0000 C   0  0  0  0  0  4           0  0  0
    1.7769    2.5197    0.0285 C   0  0  0  0  0  4           0  0  0
    2.5075    3.4156   -0.9715 C   0  0  0  0  0  4           0  0  0
    2.3742    2.9732   -2.4292 C   0  0  0  0  0  4           0  0  0
    3.1134    3.8875   -3.3947 C   0  0  0  0  0  4           0  0  0
  1  7  1  0     0  0
  2 22  2  0     0  0
  3 22  1  0     0  0
  4 23  1  0     0  0
  5  8  1  0     0  0
  5  9  1  0     0  0
  5 24  1  0     0  0
  6  7  1  0     0  0
  6  8  2  0     0  0
  7  9  2  0     0  0
  8 25  1  0     0  0
  9 23  1  0     0  0
 10 11  1  0     0  0
 10 14  2  0     0  0
 10 15  1  0     0  0
 11 16  2  0     0  0
 11 17  1  0     0  0
 12 18  2  0     0  0
 12 19  1  0     0  0
 12 22  1  0     0  0
 13 20  2  0     0  0
 13 21  1  0     0  0
 13 24  1  0     0  0
 14 18  1  0     0  0
 15 19  2  0     0  0
 16 20  1  0     0  0
 17 21  2  0     0  0
 25 26  1  0     0  0
 26 27  1  0     0  0
 27 28  1  0     0  0
M  END
> <standard_type>
pIC50

> <# Confs.>
25

> <canonical_smiles>
ClC(N=C1CCCC)=C(CO)N1CC2=CC=C(C3=CC=C(C(O)=O)C=C3)C=C2

> <standard_relation>
=

> <Publication_ID>
nan

> <predicted_activity_value>
5.045757490560675

> <actual_activity_value>
4.958607314841775

> <Compound>
21

> <standard_units>
nM

> hash
2020846105828027059

$$$$
21_
XXILIB    08252103443D 0   0.00000     0.00000

 28 30  0     1  0            999 V2000
    5.0043   -1.4905   -0.0959 Cl  0  0  0  0  0  1           0  0  0
   -4.8477    0.1904    9.6361 O   0  0  0  0  0  2           0  0  0
   -2.7407   -0.4373   10.2388 O   0  0  0  0  0  2           0  0  0
    1.6062   -2.9048   -1.4009 O   0  0  0  0  0  2           0  0  0
    1.4523    0.0000   -0.0000 N   0  0  0  0  0  3           0  0  0
    3.5375    0.7648   -0.0278 N   0  0  0  0  0  3           0  0  0
    3.5487   -0.6053   -0.0496 C   0  0  0  0  0  4           0  0  0
    2.2670    1.1150    0.0000 C   0  0  0  0  0  4           0  0  0
    2.2644   -1.1161   -0.0329 C   0  0  0  0  0  4           0  0  0
   -2.1236   -0.0357    5.3805 C   0  0  0  0  0  4           0  0  0
   -1.5882   -0.0257    4.0244 C   0  0  0  0  0  4           0  0  0
   -3.1483   -0.0503    7.9816 C   0  0  0  0  0  4           0  0  0
   -0.5423   -0.0000    1.3965 C   0  0  0  0  0  4           0  0  0
   -1.3018   -0.3661    6.4726 C   0  0  0  0  0  4           0  0  0
   -3.4717    0.2833    5.6215 C   0  0  0  0  0  4           0  0  0
   -2.1107    0.8401    3.0523 C   0  0  0  0  0  4           0  0  0
   -0.5390   -0.8827    3.6607 C   0  0  0  0  0  4           0  0  0
   -1.8098   -0.3764    7.7725 C   0  0  0  0  0  4           0  0  0
   -3.9878    0.2750    6.9182 C   0  0  0  0  0  4           0  0  0
   -1.5947    0.8519    1.7531 C   0  0  0  0  0  4           0  0  0
   -0.0237   -0.8720    2.3614 C   0  0  0  0  0  4           0  0  0
   -3.6932   -0.0776    9.3498 C   0  0  0  0  0  4           0  0  0
    1.7765   -2.5116   -0.0457 C   0  0  0  0  0  4           0  0  0
    0.0000    0.0000    0.0000 C   0  0  0  0  0  4           0  0  0
    1.7769    2.5197    0.0285 C   0  0  0  0  0  4           0  0  0
    1.6104    3.0535    1.4510 C   0  0  0  0  0  4           0  0  0
    2.8975    3.0605    2.2766 C   0  0  0  0  0  4           0  0  0
    2.6936    3.5977    3.6853 C   0  0  0  0  0  4           0  0  0
  1  7  1  0     0  0
  2 22  2  0     0  0
  3 22  1  0     0  0
  4 23  1  0     0  0
  5  8  1  0     0  0
  5  9  1  0     0  0
  5 24  1  0     0  0
  6  7  1  0     0  0
  6  8  2  0     0  0
  7  9  2  0     0  0
  8 25  1  0     0  0
  9 23  1  0     0  0
 10 11  1  0     0  0
 10 14  2  0     0  0
 10 15  1  0     0  0
 11 16  2  0     0  0
 11 17  1  0     0  0
 12 18  2  0     0  0
 12 19  1  0     0  0
 12 22  1  0     0  0
 13 20  2  0     0  0
 13 21  1  0     0  0
 13 24  1  0     0  0
 14 18  1  0     0  0
 15 19  2  0     0  0
 16 20  1  0     0  0
 17 21  2  0     0  0
 25 26  1  0     0  0
 26 27  1  0     0  0
 27 28  1  0     0  0
M  END
> <standard_type>
pIC50

> <# Confs.>
25

> <canonical_smiles>
ClC(N=C1CCCC)=C(CO)N1CC2=CC=C(C3=CC=C(C(O)=O)C=C3)C=C2

> <standard_relation>
=

> <Publication_ID>
nan

> <predicted_activity_value>
5.045757490560675

> <actual_activity_value>
4.958607314841775

> <Compound>
21

> <standard_units>
nM

> hash
2020846105828027059

$$$$
21_
XXILIB    08252103443D 0   0.00000     0.00000

 28 30  0     1  0            999 V2000
    5.0043   -1.4905   -0.0959 Cl  0  0  0  0  0  1           0  0  0
   -3.0394   -0.3297   10.3461 O   0  0  0  0  0  2           0  0  0
   -4.9931    0.3008    9.3551 O   0  0  0  0  0  2           0  0  0
    1.6062   -2.9048   -1.4009 O   0  0  0  0  0  2           0  0  0
    1.4523    0.0000   -0.0000 N   0  0  0  0  0  3           0  0  0
    3.5375    0.7648   -0.0278 N   0  0  0  0  0  3           0  0  0
    3.5487   -0.6053   -0.0496 C   0  0  0  0  0  4           0  0  0
    2.2670    1.1150    0.0000 C   0  0  0  0  0  4           0  0  0
    2.2644   -1.1161   -0.0329 C   0  0  0  0  0  4           0  0  0
   -2.1236   -0.0357    5.3805 C   0  0  0  0  0  4           0  0  0
   -1.5882   -0.0257    4.0244 C   0  0  0  0  0  4           0  0  0
   -3.1518   -0.0594    7.9802 C   0  0  0  0  0  4           0  0  0
   -0.5423   -0.0000    1.3965 C   0  0  0  0  0  4           0  0  0
   -3.4713    0.2849    5.6210 C   0  0  0  0  0  4           0  0  0
   -1.3019   -0.3645    6.4732 C   0  0  0  0  0  4           0  0  0
   -2.1107    0.8401    3.0523 C   0  0  0  0  0  4           0  0  0
   -0.5390   -0.8827    3.6607 C   0  0  0  0  0  4           0  0  0
   -3.9882    0.2760    6.9174 C   0  0  0  0  0  4           0  0  0
   -1.8107   -0.3754    7.7728 C   0  0  0  0  0  4           0  0  0
   -1.5947    0.8519    1.7531 C   0  0  0  0  0  4           0  0  0
   -0.0237   -0.8720    2.3614 C   0  0  0  0  0  4           0  0  0
   -3.6884   -0.0522    9.3519 C   0  0  0  0  0  4           0  0  0
    1.7765   -2.5116   -0.0457 C   0  0  0  0  0  4           0  0  0
    0.0000    0.0000    0.0000 C   0  0  0  0  0  4           0  0  0
    1.7769    2.5197    0.0285 C   0  0  0  0  0  4           0  0  0
    1.6104    3.0535    1.4510 C   0  0  0  0  0  4           0  0  0
    1.1078    4.4957    1.5285 C   0  0  0  0  0  4           0  0  0
    0.9543    4.9925    2.9583 C   0  0  0  0  0  4           0  0  0
  1  7  1  0     0  0
  2 22  2  0     0  0
  3 22  1  0     0  0
  4 23  1  0     0  0
  5  8  1  0     0  0
  5  9  1  0     0  0
  5 24  1  0     0  0
  6  7  1  0     0  0
  6  8  2  0     0  0
  7  9  2  0     0  0
  8 25  1  0     0  0
  9 23  1  0     0  0
 10 11  1  0     0  0
 10 14  2  0     0  0
 10 15  1  0     0  0
 11 16  2  0     0  0
 11 17  1  0     0  0
 12 18  2  0     0  0
 12 19  1  0     0  0
 12 22  1  0     0  0
 13 20  2  0     0  0
 13 21  1  0     0  0
 13 24  1  0     0  0
 14 18  1  0     0  0
 15 19  2  0     0  0
 16 20  1  0     0  0
 17 21  2  0     0  0
 25 26  1  0     0  0
 26 27  1  0     0  0
 27 28  1  0     0  0
M  END
> <standard_type>
pIC50

> <# Confs.>
25

> <canonical_smiles>
ClC(N=C1CCCC)=C(CO)N1CC2=CC=C(C3=CC=C(C(O)=O)C=C3)C=C2

> <standard_relation>
=

> <Publication_ID>
nan

> <predicted_activity_value>
5.045757490560675

> <actual_activity_value>
4.958607314841775

> <Compound>
21

> <standard_units>
nM

> hash
2020846105828027059

$$$$
21_
XXILIB    08252103443D 0   0.00000     0.00000

 28 30  0     1  0            999 V2000
    5.0043   -1.4905   -0.0959 Cl  0  0  0  0  0  1           0  0  0
   -4.8566   -0.2011    9.6309 O   0  0  0  0  0  2           0  0  0
   -2.7301    0.3435   10.2457 O   0  0  0  0  0  2           0  0  0
    1.6062   -2.9048   -1.4009 O   0  0  0  0  0  2           0  0  0
    1.4523    0.0000   -0.0000 N   0  0  0  0  0  3           0  0  0
    3.5375    0.7648   -0.0278 N   0  0  0  0  0  3           0  0  0
    3.5487   -0.6053   -0.0496 C   0  0  0  0  0  4           0  0  0
    2.2670    1.1150    0.0000 C   0  0  0  0  0  4           0  0  0
    2.2644   -1.1161   -0.0329 C   0  0  0  0  0  4           0  0  0
   -2.1272    0.0318    5.3791 C   0  0  0  0  0  4           0  0  0
   -1.5901    0.0237    4.0236 C   0  0  0  0  0  4           0  0  0
   -3.1576    0.0523    7.9779 C   0  0  0  0  0  4           0  0  0
   -0.5423   -0.0000    1.3965 C   0  0  0  0  0  4           0  0  0
   -1.3009    0.3366    6.4752 C   0  0  0  0  0  4           0  0  0
   -3.4809   -0.2665    5.6157 C   0  0  0  0  0  4           0  0  0
   -0.5234    0.8626    3.6686 C   0  0  0  0  0  4           0  0  0
   -2.1287   -0.8227    3.0433 C   0  0  0  0  0  4           0  0  0
   -1.8109    0.3461    7.7743 C   0  0  0  0  0  4           0  0  0
   -3.9987   -0.2596    6.9117 C   0  0  0  0  0  4           0  0  0
   -0.0064    0.8519    2.3699 C   0  0  0  0  0  4           0  0  0
   -1.6128   -0.8327    1.7443 C   0  0  0  0  0  4           0  0  0
   -3.6958    0.0432    9.3490 C   0  0  0  0  0  4           0  0  0
    1.7765   -2.5116   -0.0457 C   0  0  0  0  0  4           0  0  0
    0.0000    0.0000    0.0000 C   0  0  0  0  0  4           0  0  0
    1.7769    2.5197    0.0285 C   0  0  0  0  0  4           0  0  0
    2.5075    3.4156   -0.9715 C   0  0  0  0  0  4           0  0  0
    2.0357    4.8702   -0.9768 C   0  0  0  0  0  4           0  0  0
    2.7844    5.7311   -1.9832 C   0  0  0  0  0  4           0  0  0
  1  7  1  0     0  0
  2 22  2  0     0  0
  3 22  1  0     0  0
  4 23  1  0     0  0
  5  8  1  0     0  0
  5  9  1  0     0  0
  5 24  1  0     0  0
  6  7  1  0     0  0
  6  8  2  0     0  0
  7  9  2  0     0  0
  8 25  1  0     0  0
  9 23  1  0     0  0
 10 11  1  0     0  0
 10 14  2  0     0  0
 10 15  1  0     0  0
 11 16  2  0     0  0
 11 17  1  0     0  0
 12 18  2  0     0  0
 12 19  1  0     0  0
 12 22  1  0     0  0
 13 20  2  0     0  0
 13 21  1  0     0  0
 13 24  1  0     0  0
 14 18  1  0     0  0
 15 19  2  0     0  0
 16 20  1  0     0  0
 17 21  2  0     0  0
 25 26  1  0     0  0
 26 27  1  0     0  0
 27 28  1  0     0  0
M  END
> <standard_type>
pIC50

> <# Confs.>
25

> <canonical_smiles>
ClC(N=C1CCCC)=C(CO)N1CC2=CC=C(C3=CC=C(C(O)=O)C=C3)C=C2

> <standard_relation>
=

> <Publication_ID>
nan

> <predicted_activity_value>
5.045757490560675

> <actual_activity_value>
4.958607314841775

> <Compound>
21

> <standard_units>
nM

> hash
2020846105828027059

$$$$
21_
XXILIB    08252103443D 0   0.00000     0.00000

 28 30  0     1  0            999 V2000
    5.0043   -1.4905   -0.0959 Cl  0  0  0  0  0  1           0  0  0
   -4.1882    0.9016    9.9016 O   0  0  0  0  0  2           0  0  0
   -3.5985   -1.3004    9.8938 O   0  0  0  0  0  2           0  0  0
    1.6062   -2.9048   -1.4009 O   0  0  0  0  0  2           0  0  0
    1.4523    0.0000   -0.0000 N   0  0  0  0  0  3           0  0  0
    3.5375    0.7648   -0.0278 N   0  0  0  0  0  3           0  0  0
    3.5487   -0.6053   -0.0496 C   0  0  0  0  0  4           0  0  0
    2.2670    1.1150    0.0000 C   0  0  0  0  0  4           0  0  0
    2.2644   -1.1161   -0.0329 C   0  0  0  0  0  4           0  0  0
   -2.1236   -0.0357    5.3805 C   0  0  0  0  0  4           0  0  0
   -1.5882   -0.0257    4.0244 C   0  0  0  0  0  4           0  0  0
   -3.1455   -0.0542    7.9827 C   0  0  0  0  0  4           0  0  0
   -0.5423   -0.0000    1.3965 C   0  0  0  0  0  4           0  0  0
   -2.1039   -1.2126    6.1498 C   0  0  0  0  0  4           0  0  0
   -2.6709    1.1307    5.9438 C   0  0  0  0  0  4           0  0  0
   -2.1107    0.8401    3.0523 C   0  0  0  0  0  4           0  0  0
   -0.5390   -0.8827    3.6607 C   0  0  0  0  0  4           0  0  0
   -2.6147   -1.2266    7.4485 C   0  0  0  0  0  4           0  0  0
   -3.1841    1.1252    7.2417 C   0  0  0  0  0  4           0  0  0
   -1.5947    0.8519    1.7531 C   0  0  0  0  0  4           0  0  0
   -0.0237   -0.8720    2.3614 C   0  0  0  0  0  4           0  0  0
   -3.7023   -0.0690    9.3463 C   0  0  0  0  0  4           0  0  0
    1.7765   -2.5116   -0.0457 C   0  0  0  0  0  4           0  0  0
    0.0000    0.0000    0.0000 C   0  0  0  0  0  4           0  0  0
    1.7769    2.5197    0.0285 C   0  0  0  0  0  4           0  0  0
    1.6104    3.0535    1.4510 C   0  0  0  0  0  4           0  0  0
    1.1078    4.4957    1.5285 C   0  0  0  0  0  4           0  0  0
    0.9543    4.9925    2.9583 C   0  0  0  0  0  4           0  0  0
  1  7  1  0     0  0
  2 22  2  0     0  0
  3 22  1  0     0  0
  4 23  1  0     0  0
  5  8  1  0     0  0
  5  9  1  0     0  0
  5 24  1  0     0  0
  6  7  1  0     0  0
  6  8  2  0     0  0
  7  9  2  0     0  0
  8 25  1  0     0  0
  9 23  1  0     0  0
 10 11  1  0     0  0
 10 14  2  0     0  0
 10 15  1  0     0  0
 11 16  2  0     0  0
 11 17  1  0     0  0
 12 18  2  0     0  0
 12 19  1  0     0  0
 12 22  1  0     0  0
 13 20  2  0     0  0
 13 21  1  0     0  0
 13 24  1  0     0  0
 14 18  1  0     0  0
 15 19  2  0     0  0
 16 20  1  0     0  0
 17 21  2  0     0  0
 25 26  1  0     0  0
 26 27  1  0     0  0
 27 28  1  0     0  0
M  END
> <standard_type>
pIC50

> <# Confs.>
25

> <canonical_smiles>
ClC(N=C1CCCC)=C(CO)N1CC2=CC=C(C3=CC=C(C(O)=O)C=C3)C=C2

> <standard_relation>
=

> <Publication_ID>
nan

> <predicted_activity_value>
5.045757490560675

> <actual_activity_value>
4.958607314841775

> <Compound>
21

> <standard_units>
nM

> hash
2020846105828027059

$$$$
21_
XXILIB    08252103443D 0   0.00000     0.00000

 28 30  0     1  0            999 V2000
    5.0043   -1.4905   -0.0959 Cl  0  0  0  0  0  1           0  0  0
   -4.8477    0.1904    9.6361 O   0  0  0  0  0  2           0  0  0
   -2.7407   -0.4373   10.2388 O   0  0  0  0  0  2           0  0  0
    1.6062   -2.9048   -1.4009 O   0  0  0  0  0  2           0  0  0
    1.4523    0.0000   -0.0000 N   0  0  0  0  0  3           0  0  0
    3.5375    0.7648   -0.0278 N   0  0  0  0  0  3           0  0  0
    3.5487   -0.6053   -0.0496 C   0  0  0  0  0  4           0  0  0
    2.2670    1.1150    0.0000 C   0  0  0  0  0  4           0  0  0
    2.2644   -1.1161   -0.0329 C   0  0  0  0  0  4           0  0  0
   -2.1236   -0.0357    5.3805 C   0  0  0  0  0  4           0  0  0
   -1.5882   -0.0257    4.0244 C   0  0  0  0  0  4           0  0  0
   -3.1483   -0.0503    7.9816 C   0  0  0  0  0  4           0  0  0
   -0.5423   -0.0000    1.3965 C   0  0  0  0  0  4           0  0  0
   -1.3018   -0.3661    6.4726 C   0  0  0  0  0  4           0  0  0
   -3.4717    0.2833    5.6215 C   0  0  0  0  0  4           0  0  0
   -2.1107    0.8401    3.0523 C   0  0  0  0  0  4           0  0  0
   -0.5390   -0.8827    3.6607 C   0  0  0  0  0  4           0  0  0
   -1.8098   -0.3764    7.7725 C   0  0  0  0  0  4           0  0  0
   -3.9878    0.2750    6.9182 C   0  0  0  0  0  4           0  0  0
   -1.5947    0.8519    1.7531 C   0  0  0  0  0  4           0  0  0
   -0.0237   -0.8720    2.3614 C   0  0  0  0  0  4           0  0  0
   -3.6932   -0.0776    9.3498 C   0  0  0  0  0  4           0  0  0
    1.7765   -2.5116   -0.0457 C   0  0  0  0  0  4           0  0  0
    0.0000    0.0000    0.0000 C   0  0  0  0  0  4           0  0  0
    1.7769    2.5197    0.0285 C   0  0  0  0  0  4           0  0  0
    1.5574    3.0922   -1.3717 C   0  0  0  0  0  4           0  0  0
    2.8126    3.1225   -2.2445 C   0  0  0  0  0  4           0  0  0
    2.5564    3.6980   -3.6293 C   0  0  0  0  0  4           0  0  0
  1  7  1  0     0  0
  2 22  2  0     0  0
  3 22  1  0     0  0
  4 23  1  0     0  0
  5  8  1  0     0  0
  5  9  1  0     0  0
  5 24  1  0     0  0
  6  7  1  0     0  0
  6  8  2  0     0  0
  7  9  2  0     0  0
  8 25  1  0     0  0
  9 23  1  0     0  0
 10 11  1  0     0  0
 10 14  2  0     0  0
 10 15  1  0     0  0
 11 16  2  0     0  0
 11 17  1  0     0  0
 12 18  2  0     0  0
 12 19  1  0     0  0
 12 22  1  0     0  0
 13 20  2  0     0  0
 13 21  1  0     0  0
 13 24  1  0     0  0
 14 18  1  0     0  0
 15 19  2  0     0  0
 16 20  1  0     0  0
 17 21  2  0     0  0
 25 26  1  0     0  0
 26 27  1  0     0  0
 27 28  1  0     0  0
M  END
> <standard_type>
pIC50

> <# Confs.>
25

> <canonical_smiles>
ClC(N=C1CCCC)=C(CO)N1CC2=CC=C(C3=CC=C(C(O)=O)C=C3)C=C2

> <standard_relation>
=

> <Publication_ID>
nan

> <predicted_activity_value>
5.045757490560675

> <actual_activity_value>
4.958607314841775

> <Compound>
21

> <standard_units>
nM

> hash
2020846105828027059

$$$$
21_
XXILIB    08252103443D 0   0.00000     0.00000

 28 30  0     1  0            999 V2000
    5.0043   -1.4905   -0.0959 Cl  0  0  0  0  0  1           0  0  0
   -3.6989   -1.0409   10.0805 O   0  0  0  0  0  2           0  0  0
   -4.1354    1.1640    9.7000 O   0  0  0  0  0  2           0  0  0
    1.6062   -2.9048   -1.4009 O   0  0  0  0  0  2           0  0  0
    1.4523    0.0000   -0.0000 N   0  0  0  0  0  3           0  0  0
    3.5375    0.7648   -0.0278 N   0  0  0  0  0  3           0  0  0
    3.5487   -0.6053   -0.0496 C   0  0  0  0  0  4           0  0  0
    2.2670    1.1150    0.0000 C   0  0  0  0  0  4           0  0  0
    2.2644   -1.1161   -0.0329 C   0  0  0  0  0  4           0  0  0
   -2.1236   -0.0357    5.3805 C   0  0  0  0  0  4           0  0  0
   -1.5882   -0.0257    4.0244 C   0  0  0  0  0  4           0  0  0
   -3.1546   -0.0555    7.9791 C   0  0  0  0  0  4           0  0  0
   -0.5423   -0.0000    1.3965 C   0  0  0  0  0  4           0  0  0
   -2.6693    1.1313    5.9438 C   0  0  0  0  0  4           0  0  0
   -2.1027   -1.2119    6.1509 C   0  0  0  0  0  4           0  0  0
   -2.1107    0.8401    3.0523 C   0  0  0  0  0  4           0  0  0
   -0.5390   -0.8827    3.6607 C   0  0  0  0  0  4           0  0  0
   -3.1834    1.1262    7.2413 C   0  0  0  0  0  4           0  0  0
   -2.6144   -1.2255    7.4493 C   0  0  0  0  0  4           0  0  0
   -1.5947    0.8519    1.7531 C   0  0  0  0  0  4           0  0  0
   -0.0237   -0.8720    2.3614 C   0  0  0  0  0  4           0  0  0
   -3.6794   -0.0609    9.3554 C   0  0  0  0  0  4           0  0  0
    1.7765   -2.5116   -0.0457 C   0  0  0  0  0  4           0  0  0
    0.0000    0.0000    0.0000 C   0  0  0  0  0  4           0  0  0
    1.7769    2.5197    0.0285 C   0  0  0  0  0  4           0  0  0
    1.6104    3.0535    1.4510 C   0  0  0  0  0  4           0  0  0
    1.1078    4.4957    1.5285 C   0  0  0  0  0  4           0  0  0
    0.9543    4.9925    2.9583 C   0  0  0  0  0  4           0  0  0
  1  7  1  0     0  0
  2 22  2  0     0  0
  3 22  1  0     0  0
  4 23  1  0     0  0
  5  8  1  0     0  0
  5  9  1  0     0  0
  5 24  1  0     0  0
  6  7  1  0     0  0
  6  8  2  0     0  0
  7  9  2  0     0  0
  8 25  1  0     0  0
  9 23  1  0     0  0
 10 11  1  0     0  0
 10 14  2  0     0  0
 10 15  1  0     0  0
 11 16  2  0     0  0
 11 17  1  0     0  0
 12 18  2  0     0  0
 12 19  1  0     0  0
 12 22  1  0     0  0
 13 20  2  0     0  0
 13 21  1  0     0  0
 13 24  1  0     0  0
 14 18  1  0     0  0
 15 19  2  0     0  0
 16 20  1  0     0  0
 17 21  2  0     0  0
 25 26  1  0     0  0
 26 27  1  0     0  0
 27 28  1  0     0  0
M  END
> <standard_type>
pIC50

> <# Confs.>
25

> <canonical_smiles>
ClC(N=C1CCCC)=C(CO)N1CC2=CC=C(C3=CC=C(C(O)=O)C=C3)C=C2

> <standard_relation>
=

> <Publication_ID>
nan

> <predicted_activity_value>
5.045757490560675

> <actual_activity_value>
4.958607314841775

> <Compound>
21

> <standard_units>
nM

> hash
2020846105828027059

$$$$
22_
XXILIB    08252103443D 0   0.00000     0.00000

 25 26  0     1  0            999 V2000
   -3.5514    0.0514   -1.4977 Cl  0  0  0  0  0  1           0  0  0
    0.9223    2.0622   -2.8958 O   0  0  0  0  0  2           0  0  0
    3.5173   -5.3600   -2.3712 O   0  0  0  0  0  2           0  0  0
   -1.2297    1.9511   -3.6083 O   0  0  0  0  0  2           0  0  0
    4.2695   -7.2370   -1.3406 O   0  0  0  0  0  2           0  0  0
    0.0000   -0.0000    0.0000 N   0  0  0  0  0  3           0  0  0
   -2.0876    0.0134    0.7607 N   0  0  0  0  0  3           0  0  0
   -2.0963    0.0280   -0.6092 C   0  0  0  0  0  4           0  0  0
   -0.8178    0.0000    1.1140 C   0  0  0  0  0  4           0  0  0
   -0.8109    0.0232   -1.1184 C   0  0  0  0  0  4           0  0  0
    1.9916   -1.3968    0.0000 C   0  0  0  0  0  4           0  0  0
    3.0107   -4.0266    0.0437 C   0  0  0  0  0  4           0  0  0
    1.1250   -2.4972    0.0000 C   0  0  0  0  0  4           0  0  0
    3.3731   -1.6250    0.0249 C   0  0  0  0  0  4           0  0  0
    1.6295   -3.7996    0.0153 C   0  0  0  0  0  4           0  0  0
    3.8781   -2.9274    0.0408 C   0  0  0  0  0  4           0  0  0
   -0.1262    1.4389   -3.0083 C   0  0  0  0  0  4           0  0  0
    3.7617   -5.9793   -1.3428 C   0  0  0  0  0  4           0  0  0
    1.4502   -0.0000    0.0000 C   0  0  0  0  0  4           0  0  0
   -0.3354   -0.0151    2.5200 C   0  0  0  0  0  4           0  0  0
   -0.3220    0.0302   -2.5203 C   0  0  0  0  0  4           0  0  0
    3.5532   -5.4263    0.0398 C   0  0  0  0  0  4           0  0  0
   -0.1329    1.3898    3.0794 C   0  0  0  0  0  4           0  0  0
    0.3626    1.3859    4.5234 C   0  0  0  0  0  4           0  0  0
    0.5656    2.7855    5.0845 C   0  0  0  0  0  4           0  0  0
  1  8  1  0     0  0
  2 17  2  0     0  0
  3 18  2  0     0  0
  4 17  1  0     0  0
  5 18  1  0     0  0
  6  9  1  0     0  0
  6 10  1  0     0  0
  6 19  1  0     0  0
  7  8  1  0     0  0
  7  9  2  0     0  0
  8 10  2  0     0  0
  9 20  1  0     0  0
 10 21  1  0     0  0
 11 13  2  0     0  0
 11 14  1  0     0  0
 11 19  1  0     0  0
 12 15  2  0     0  0
 12 16  1  0     0  0
 12 22  1  0     0  0
 13 15  1  0     0  0
 14 16  2  0     0  0
 17 21  1  0     0  0
 18 22  1  0     0  0
 20 23  1  0     0  0
 23 24  1  0     0  0
 24 25  1  0     0  0
M  END
> <standard_type>
pIC50

> <# Confs.>
25

> <canonical_smiles>
ClC(N=C1CCCC)=C(CC(O)=O)N1CC2=CC=C(CC(O)=O)C=C2

> <standard_relation>
=

> <Publication_ID>
nan

> <predicted_activity_value>
5.045757490560675

> <actual_activity_value>
4.886056647693163

> <Compound>
22

> <standard_units>
nM

> hash
15933815746296400870

$$$$
22_
XXILIB    08252103443D 0   0.00000     0.00000

 25 26  0     1  0            999 V2000
   -3.5514    0.0514   -1.4977 Cl  0  0  0  0  0  1           0  0  0
    0.8622   -2.0296   -2.9370 O   0  0  0  0  0  2           0  0  0
    3.5173    5.3600    2.3712 O   0  0  0  0  0  2           0  0  0
   -1.2973   -1.8546   -3.6131 O   0  0  0  0  0  2           0  0  0
    4.2695    7.2370    1.3406 O   0  0  0  0  0  2           0  0  0
    0.0000   -0.0000    0.0000 N   0  0  0  0  0  3           0  0  0
   -2.0876    0.0134    0.7607 N   0  0  0  0  0  3           0  0  0
   -2.0963    0.0280   -0.6092 C   0  0  0  0  0  4           0  0  0
   -0.8178    0.0000    1.1140 C   0  0  0  0  0  4           0  0  0
   -0.8109    0.0232   -1.1184 C   0  0  0  0  0  4           0  0  0
    1.9916    1.3968    0.0000 C   0  0  0  0  0  4           0  0  0
    3.0107    4.0266   -0.0437 C   0  0  0  0  0  4           0  0  0
    1.1250    2.4972    0.0000 C   0  0  0  0  0  4           0  0  0
    3.3731    1.6250   -0.0249 C   0  0  0  0  0  4           0  0  0
    1.6295    3.7996   -0.0153 C   0  0  0  0  0  4           0  0  0
    3.8781    2.9274   -0.0408 C   0  0  0  0  0  4           0  0  0
   -0.1676   -1.3736   -3.0367 C   0  0  0  0  0  4           0  0  0
    3.7617    5.9793    1.3428 C   0  0  0  0  0  4           0  0  0
    1.4502    0.0000    0.0000 C   0  0  0  0  0  4           0  0  0
   -0.3354   -0.0151    2.5200 C   0  0  0  0  0  4           0  0  0
   -0.3220    0.0302   -2.5203 C   0  0  0  0  0  4           0  0  0
    3.5532    5.4263   -0.0398 C   0  0  0  0  0  4           0  0  0
   -0.1610   -1.4318    3.0588 C   0  0  0  0  0  4           0  0  0
    0.3342   -1.4589    4.5026 C   0  0  0  0  0  4           0  0  0
    0.5092   -2.8704    5.0431 C   0  0  0  0  0  4           0  0  0
  1  8  1  0     0  0
  2 17  2  0     0  0
  3 18  2  0     0  0
  4 17  1  0     0  0
  5 18  1  0     0  0
  6  9  1  0     0  0
  6 10  1  0     0  0
  6 19  1  0     0  0
  7  8  1  0     0  0
  7  9  2  0     0  0
  8 10  2  0     0  0
  9 20  1  0     0  0
 10 21  1  0     0  0
 11 13  2  0     0  0
 11 14  1  0     0  0
 11 19  1  0     0  0
 12 15  2  0     0  0
 12 16  1  0     0  0
 12 22  1  0     0  0
 13 15  1  0     0  0
 14 16  2  0     0  0
 17 21  1  0     0  0
 18 22  1  0     0  0
 20 23  1  0     0  0
 23 24  1  0     0  0
 24 25  1  0     0  0
M  END
> <standard_type>
pIC50

> <# Confs.>
25

> <canonical_smiles>
ClC(N=C1CCCC)=C(CC(O)=O)N1CC2=CC=C(CC(O)=O)C=C2

> <standard_relation>
=

> <Publication_ID>
nan

> <predicted_activity_value>
5.045757490560675

> <actual_activity_value>
4.886056647693163

> <Compound>
22

> <standard_units>
nM

> hash
15933815746296400870

$$$$
22_
XXILIB    08252103443D 0   0.00000     0.00000

 25 26  0     1  0            999 V2000
   -3.5514    0.0514   -1.4977 Cl  0  0  0  0  0  1           0  0  0
    0.8622   -2.0296   -2.9370 O   0  0  0  0  0  2           0  0  0
    1.9693    5.9600   -1.6835 O   0  0  0  0  0  2           0  0  0
   -1.2973   -1.8546   -3.6131 O   0  0  0  0  0  2           0  0  0
    3.3643    7.5879   -0.9384 O   0  0  0  0  0  2           0  0  0
    0.0000   -0.0000    0.0000 N   0  0  0  0  0  3           0  0  0
   -2.0876    0.0134    0.7607 N   0  0  0  0  0  3           0  0  0
   -2.0963    0.0280   -0.6092 C   0  0  0  0  0  4           0  0  0
   -0.8178    0.0000    1.1140 C   0  0  0  0  0  4           0  0  0
   -0.8109    0.0232   -1.1184 C   0  0  0  0  0  4           0  0  0
    1.9916    1.3968    0.0000 C   0  0  0  0  0  4           0  0  0
    3.0397    4.0154    0.0308 C   0  0  0  0  0  4           0  0  0
    3.0442    1.7534   -0.8526 C   0  0  0  0  0  4           0  0  0
    1.4704    2.3624    0.8702 C   0  0  0  0  0  4           0  0  0
    3.5591    3.0517   -0.8419 C   0  0  0  0  0  4           0  0  0
    1.9856    3.6609    0.8815 C   0  0  0  0  0  4           0  0  0
   -0.1676   -1.3736   -3.0367 C   0  0  0  0  0  4           0  0  0
    2.8852    6.3189   -0.9535 C   0  0  0  0  0  4           0  0  0
    1.4502   -0.0000    0.0000 C   0  0  0  0  0  4           0  0  0
   -0.3354   -0.0151    2.5200 C   0  0  0  0  0  4           0  0  0
   -0.3220    0.0302   -2.5203 C   0  0  0  0  0  4           0  0  0
    3.5797    5.4160    0.0280 C   0  0  0  0  0  4           0  0  0
   -0.1610   -1.4318    3.0588 C   0  0  0  0  0  4           0  0  0
    0.3342   -1.4589    4.5026 C   0  0  0  0  0  4           0  0  0
    0.5092   -2.8704    5.0431 C   0  0  0  0  0  4           0  0  0
  1  8  1  0     0  0
  2 17  2  0     0  0
  3 18  2  0     0  0
  4 17  1  0     0  0
  5 18  1  0     0  0
  6  9  1  0     0  0
  6 10  1  0     0  0
  6 19  1  0     0  0
  7  8  1  0     0  0
  7  9  2  0     0  0
  8 10  2  0     0  0
  9 20  1  0     0  0
 10 21  1  0     0  0
 11 13  2  0     0  0
 11 14  1  0     0  0
 11 19  1  0     0  0
 12 15  2  0     0  0
 12 16  1  0     0  0
 12 22  1  0     0  0
 13 15  1  0     0  0
 14 16  2  0     0  0
 17 21  1  0     0  0
 18 22  1  0     0  0
 20 23  1  0     0  0
 23 24  1  0     0  0
 24 25  1  0     0  0
M  END
> <standard_type>
pIC50

> <# Confs.>
25

> <canonical_smiles>
ClC(N=C1CCCC)=C(CC(O)=O)N1CC2=CC=C(CC(O)=O)C=C2

> <standard_relation>
=

> <Publication_ID>
nan

> <predicted_activity_value>
5.045757490560675

> <actual_activity_value>
4.886056647693163

> <Compound>
22

> <standard_units>
nM

> hash
15933815746296400870

$$$$
22_
XXILIB    08252103443D 0   0.00000     0.00000

 25 26  0     1  0            999 V2000
   -3.5514    0.0514   -1.4977 Cl  0  0  0  0  0  1           0  0  0
    0.8622   -2.0296   -2.9370 O   0  0  0  0  0  2           0  0  0
    5.1408    4.7441    1.7398 O   0  0  0  0  0  2           0  0  0
   -1.2973   -1.8546   -3.6131 O   0  0  0  0  0  2           0  0  0
    5.1984    6.8846    0.9873 O   0  0  0  0  0  2           0  0  0
    0.0000   -0.0000    0.0000 N   0  0  0  0  0  3           0  0  0
   -2.0876    0.0134    0.7607 N   0  0  0  0  0  3           0  0  0
   -2.0963    0.0280   -0.6092 C   0  0  0  0  0  4           0  0  0
   -0.8178    0.0000    1.1140 C   0  0  0  0  0  4           0  0  0
   -0.8109    0.0232   -1.1184 C   0  0  0  0  0  4           0  0  0
    1.9916    1.3968    0.0000 C   0  0  0  0  0  4           0  0  0
    3.0397    4.0154    0.0308 C   0  0  0  0  0  4           0  0  0
    3.0442    1.7534   -0.8526 C   0  0  0  0  0  4           0  0  0
    1.4704    2.3624    0.8702 C   0  0  0  0  0  4           0  0  0
    3.5591    3.0517   -0.8419 C   0  0  0  0  0  4           0  0  0
    1.9856    3.6609    0.8815 C   0  0  0  0  0  4           0  0  0
   -0.1676   -1.3736   -3.0367 C   0  0  0  0  0  4           0  0  0
    4.7018    5.6225    1.0074 C   0  0  0  0  0  4           0  0  0
    1.4502   -0.0000    0.0000 C   0  0  0  0  0  4           0  0  0
   -0.3354   -0.0151    2.5200 C   0  0  0  0  0  4           0  0  0
   -0.3220    0.0302   -2.5203 C   0  0  0  0  0  4           0  0  0
    3.5797    5.4160    0.0280 C   0  0  0  0  0  4           0  0  0
   -0.1610   -1.4318    3.0588 C   0  0  0  0  0  4           0  0  0
    0.3342   -1.4589    4.5026 C   0  0  0  0  0  4           0  0  0
    0.5092   -2.8704    5.0431 C   0  0  0  0  0  4           0  0  0
  1  8  1  0     0  0
  2 17  2  0     0  0
  3 18  2  0     0  0
  4 17  1  0     0  0
  5 18  1  0     0  0
  6  9  1  0     0  0
  6 10  1  0     0  0
  6 19  1  0     0  0
  7  8  1  0     0  0
  7  9  2  0     0  0
  8 10  2  0     0  0
  9 20  1  0     0  0
 10 21  1  0     0  0
 11 13  2  0     0  0
 11 14  1  0     0  0
 11 19  1  0     0  0
 12 15  2  0     0  0
 12 16  1  0     0  0
 12 22  1  0     0  0
 13 15  1  0     0  0
 14 16  2  0     0  0
 17 21  1  0     0  0
 18 22  1  0     0  0
 20 23  1  0     0  0
 23 24  1  0     0  0
 24 25  1  0     0  0
M  END
> <standard_type>
pIC50

> <# Confs.>
25

> <canonical_smiles>
ClC(N=C1CCCC)=C(CC(O)=O)N1CC2=CC=C(CC(O)=O)C=C2

> <standard_relation>
=

> <Publication_ID>
nan

> <predicted_activity_value>
5.045757490560675

> <actual_activity_value>
4.886056647693163

> <Compound>
22

> <standard_units>
nM

> hash
15933815746296400870

$$$$
22_
XXILIB    08252103443D 0   0.00000     0.00000

 25 26  0     1  0            999 V2000
   -3.5514    0.0514   -1.4977 Cl  0  0  0  0  0  1           0  0  0
    0.8622   -2.0296   -2.9370 O   0  0  0  0  0  2           0  0  0
    3.5173    5.3600    2.3712 O   0  0  0  0  0  2           0  0  0
   -1.2973   -1.8546   -3.6131 O   0  0  0  0  0  2           0  0  0
    4.2695    7.2370    1.3406 O   0  0  0  0  0  2           0  0  0
    0.0000   -0.0000    0.0000 N   0  0  0  0  0  3           0  0  0
   -2.0876    0.0134    0.7607 N   0  0  0  0  0  3           0  0  0
   -2.0963    0.0280   -0.6092 C   0  0  0  0  0  4           0  0  0
   -0.8178    0.0000    1.1140 C   0  0  0  0  0  4           0  0  0
   -0.8109    0.0232   -1.1184 C   0  0  0  0  0  4           0  0  0
    1.9916    1.3968    0.0000 C   0  0  0  0  0  4           0  0  0
    3.0107    4.0266   -0.0437 C   0  0  0  0  0  4           0  0  0
    1.1250    2.4972    0.0000 C   0  0  0  0  0  4           0  0  0
    3.3731    1.6250   -0.0249 C   0  0  0  0  0  4           0  0  0
    1.6295    3.7996   -0.0153 C   0  0  0  0  0  4           0  0  0
    3.8781    2.9274   -0.0408 C   0  0  0  0  0  4           0  0  0
   -0.1676   -1.3736   -3.0367 C   0  0  0  0  0  4           0  0  0
    3.7617    5.9793    1.3428 C   0  0  0  0  0  4           0  0  0
    1.4502    0.0000    0.0000 C   0  0  0  0  0  4           0  0  0
   -0.3354   -0.0151    2.5200 C   0  0  0  0  0  4           0  0  0
   -0.3220    0.0302   -2.5203 C   0  0  0  0  0  4           0  0  0
    3.5532    5.4263   -0.0398 C   0  0  0  0  0  4           0  0  0
   -0.1329    1.3898    3.0794 C   0  0  0  0  0  4           0  0  0
    0.3626    1.3859    4.5234 C   0  0  0  0  0  4           0  0  0
    0.5656    2.7855    5.0845 C   0  0  0  0  0  4           0  0  0
  1  8  1  0     0  0
  2 17  2  0     0  0
  3 18  2  0     0  0
  4 17  1  0     0  0
  5 18  1  0     0  0
  6  9  1  0     0  0
  6 10  1  0     0  0
  6 19  1  0     0  0
  7  8  1  0     0  0
  7  9  2  0     0  0
  8 10  2  0     0  0
  9 20  1  0     0  0
 10 21  1  0     0  0
 11 13  2  0     0  0
 11 14  1  0     0  0
 11 19  1  0     0  0
 12 15  2  0     0  0
 12 16  1  0     0  0
 12 22  1  0     0  0
 13 15  1  0     0  0
 14 16  2  0     0  0
 17 21  1  0     0  0
 18 22  1  0     0  0
 20 23  1  0     0  0
 23 24  1  0     0  0
 24 25  1  0     0  0
M  END
> <standard_type>
pIC50

> <# Confs.>
25

> <canonical_smiles>
ClC(N=C1CCCC)=C(CC(O)=O)N1CC2=CC=C(CC(O)=O)C=C2

> <standard_relation>
=

> <Publication_ID>
nan

> <predicted_activity_value>
5.045757490560675

> <actual_activity_value>
4.886056647693163

> <Compound>
22

> <standard_units>
nM

> hash
15933815746296400870

$$$$
22_
XXILIB    08252103443D 0   0.00000     0.00000

 25 26  0     1  0            999 V2000
   -3.5514    0.0514   -1.4977 Cl  0  0  0  0  0  1           0  0  0
    0.9223    2.0622   -2.8958 O   0  0  0  0  0  2           0  0  0
    3.5173   -5.3600   -2.3712 O   0  0  0  0  0  2           0  0  0
   -1.2297    1.9511   -3.6083 O   0  0  0  0  0  2           0  0  0
    4.2695   -7.2370   -1.3406 O   0  0  0  0  0  2           0  0  0
    0.0000   -0.0000    0.0000 N   0  0  0  0  0  3           0  0  0
   -2.0876    0.0134    0.7607 N   0  0  0  0  0  3           0  0  0
   -2.0963    0.0280   -0.6092 C   0  0  0  0  0  4           0  0  0
   -0.8178    0.0000    1.1140 C   0  0  0  0  0  4           0  0  0
   -0.8109    0.0232   -1.1184 C   0  0  0  0  0  4           0  0  0
    1.9916   -1.3968    0.0000 C   0  0  0  0  0  4           0  0  0
    3.0107   -4.0266    0.0437 C   0  0  0  0  0  4           0  0  0
    1.1250   -2.4972    0.0000 C   0  0  0  0  0  4           0  0  0
    3.3731   -1.6250    0.0249 C   0  0  0  0  0  4           0  0  0
    1.6295   -3.7996    0.0153 C   0  0  0  0  0  4           0  0  0
    3.8781   -2.9274    0.0408 C   0  0  0  0  0  4           0  0  0
   -0.1262    1.4389   -3.0083 C   0  0  0  0  0  4           0  0  0
    3.7617   -5.9793   -1.3428 C   0  0  0  0  0  4           0  0  0
    1.4502   -0.0000    0.0000 C   0  0  0  0  0  4           0  0  0
   -0.3354   -0.0151    2.5200 C   0  0  0  0  0  4           0  0  0
   -0.3220    0.0302   -2.5203 C   0  0  0  0  0  4           0  0  0
    3.5532   -5.4263    0.0398 C   0  0  0  0  0  4           0  0  0
   -0.1610   -1.4318    3.0588 C   0  0  0  0  0  4           0  0  0
    0.3342   -1.4589    4.5026 C   0  0  0  0  0  4           0  0  0
    0.5092   -2.8704    5.0431 C   0  0  0  0  0  4           0  0  0
  1  8  1  0     0  0
  2 17  2  0     0  0
  3 18  2  0     0  0
  4 17  1  0     0  0
  5 18  1  0     0  0
  6  9  1  0     0  0
  6 10  1  0     0  0
  6 19  1  0     0  0
  7  8  1  0     0  0
  7  9  2  0     0  0
  8 10  2  0     0  0
  9 20  1  0     0  0
 10 21  1  0     0  0
 11 13  2  0     0  0
 11 14  1  0     0  0
 11 19  1  0     0  0
 12 15  2  0     0  0
 12 16  1  0     0  0
 12 22  1  0     0  0
 13 15  1  0     0  0
 14 16  2  0     0  0
 17 21  1  0     0  0
 18 22  1  0     0  0
 20 23  1  0     0  0
 23 24  1  0     0  0
 24 25  1  0     0  0
M  END
> <standard_type>
pIC50

> <# Confs.>
25

> <canonical_smiles>
ClC(N=C1CCCC)=C(CC(O)=O)N1CC2=CC=C(CC(O)=O)C=C2

> <standard_relation>
=

> <Publication_ID>
nan

> <predicted_activity_value>
5.045757490560675

> <actual_activity_value>
4.886056647693163

> <Compound>
22

> <standard_units>
nM

> hash
15933815746296400870

$$$$
22_
XXILIB    08252103443D 0   0.00000     0.00000

 25 26  0     1  0            999 V2000
   -3.5514    0.0514   -1.4977 Cl  0  0  0  0  0  1           0  0  0
    0.1761    2.3784   -2.2825 O   0  0  0  0  0  2           0  0  0
    3.5173   -5.3600   -2.3712 O   0  0  0  0  0  2           0  0  0
   -0.3006    1.5659   -4.3475 O   0  0  0  0  0  2           0  0  0
    4.2695   -7.2370   -1.3406 O   0  0  0  0  0  2           0  0  0
    0.0000   -0.0000    0.0000 N   0  0  0  0  0  3           0  0  0
   -2.0876    0.0134    0.7607 N   0  0  0  0  0  3           0  0  0
   -2.0963    0.0280   -0.6092 C   0  0  0  0  0  4           0  0  0
   -0.8178    0.0000    1.1140 C   0  0  0  0  0  4           0  0  0
   -0.8109    0.0232   -1.1184 C   0  0  0  0  0  4           0  0  0
    1.9916   -1.3968    0.0000 C   0  0  0  0  0  4           0  0  0
    3.0107   -4.0266    0.0437 C   0  0  0  0  0  4           0  0  0
    1.1250   -2.4972    0.0000 C   0  0  0  0  0  4           0  0  0
    3.3731   -1.6250    0.0249 C   0  0  0  0  0  4           0  0  0
    1.6295   -3.7996    0.0153 C   0  0  0  0  0  4           0  0  0
    3.8781   -2.9274    0.0408 C   0  0  0  0  0  4           0  0  0
   -0.1262    1.4389   -3.0083 C   0  0  0  0  0  4           0  0  0
    3.7617   -5.9793   -1.3428 C   0  0  0  0  0  4           0  0  0
    1.4502   -0.0000    0.0000 C   0  0  0  0  0  4           0  0  0
   -0.3354   -0.0151    2.5200 C   0  0  0  0  0  4           0  0  0
   -0.3220    0.0302   -2.5203 C   0  0  0  0  0  4           0  0  0
    3.5532   -5.4263    0.0398 C   0  0  0  0  0  4           0  0  0
   -0.1329    1.3898    3.0794 C   0  0  0  0  0  4           0  0  0
   -1.4157    2.2176    3.0785 C   0  0  0  0  0  4           0  0  0
   -1.2173    3.6194    3.6358 C   0  0  0  0  0  4           0  0  0
  1  8  1  0     0  0
  2 17  2  0     0  0
  3 18  2  0     0  0
  4 17  1  0     0  0
  5 18  1  0     0  0
  6  9  1  0     0  0
  6 10  1  0     0  0
  6 19  1  0     0  0
  7  8  1  0     0  0
  7  9  2  0     0  0
  8 10  2  0     0  0
  9 20  1  0     0  0
 10 21  1  0     0  0
 11 13  2  0     0  0
 11 14  1  0     0  0
 11 19  1  0     0  0
 12 15  2  0     0  0
 12 16  1  0     0  0
 12 22  1  0     0  0
 13 15  1  0     0  0
 14 16  2  0     0  0
 17 21  1  0     0  0
 18 22  1  0     0  0
 20 23  1  0     0  0
 23 24  1  0     0  0
 24 25  1  0     0  0
M  END
> <standard_type>
pIC50

> <# Confs.>
25

> <canonical_smiles>
ClC(N=C1CCCC)=C(CC(O)=O)N1CC2=CC=C(CC(O)=O)C=C2

> <standard_relation>
=

> <Publication_ID>
nan

> <predicted_activity_value>
5.045757490560675

> <actual_activity_value>
4.886056647693163

> <Compound>
22

> <standard_units>
nM

> hash
15933815746296400870

$$$$
22_
XXILIB    08252103443D 0   0.00000     0.00000

 25 26  0     1  0            999 V2000
   -3.5514    0.0514   -1.4977 Cl  0  0  0  0  0  1           0  0  0
    0.9223    2.0622   -2.8958 O   0  0  0  0  0  2           0  0  0
    1.9566   -5.9649   -1.6699 O   0  0  0  0  0  2           0  0  0
   -1.2297    1.9511   -3.6083 O   0  0  0  0  0  2           0  0  0
    3.3820   -7.5810   -0.9574 O   0  0  0  0  0  2           0  0  0
    0.0000   -0.0000    0.0000 N   0  0  0  0  0  3           0  0  0
   -2.0876    0.0134    0.7607 N   0  0  0  0  0  3           0  0  0
   -2.0963    0.0280   -0.6092 C   0  0  0  0  0  4           0  0  0
   -0.8178    0.0000    1.1140 C   0  0  0  0  0  4           0  0  0
   -0.8109    0.0232   -1.1184 C   0  0  0  0  0  4           0  0  0
    1.9916   -1.3968   -0.0000 C   0  0  0  0  0  4           0  0  0
    3.0396   -4.0154    0.0310 C   0  0  0  0  0  4           0  0  0
    1.4543   -2.3696    0.8526 C   0  0  0  0  0  4           0  0  0
    3.0603   -1.7462   -0.8349 C   0  0  0  0  0  4           0  0  0
    1.9690   -3.6680    0.8635 C   0  0  0  0  0  4           0  0  0
    3.5757   -3.0446   -0.8238 C   0  0  0  0  0  4           0  0  0
   -0.1262    1.4389   -3.0083 C   0  0  0  0  0  4           0  0  0
    2.8778   -6.3218   -0.9456 C   0  0  0  0  0  4           0  0  0
    1.4502    0.0000   -0.0000 C   0  0  0  0  0  4           0  0  0
   -0.3354   -0.0151    2.5200 C   0  0  0  0  0  4           0  0  0
   -0.3220    0.0302   -2.5203 C   0  0  0  0  0  4           0  0  0
    3.5795   -5.4161    0.0283 C   0  0  0  0  0  4           0  0  0
   -0.1329    1.3898    3.0794 C   0  0  0  0  0  4           0  0  0
    0.3626    1.3859    4.5234 C   0  0  0  0  0  4           0  0  0
    0.5656    2.7855    5.0845 C   0  0  0  0  0  4           0  0  0
  1  8  1  0     0  0
  2 17  2  0     0  0
  3 18  2  0     0  0
  4 17  1  0     0  0
  5 18  1  0     0  0
  6  9  1  0     0  0
  6 10  1  0     0  0
  6 19  1  0     0  0
  7  8  1  0     0  0
  7  9  2  0     0  0
  8 10  2  0     0  0
  9 20  1  0     0  0
 10 21  1  0     0  0
 11 13  2  0     0  0
 11 14  1  0     0  0
 11 19  1  0     0  0
 12 15  2  0     0  0
 12 16  1  0     0  0
 12 22  1  0     0  0
 13 15  1  0     0  0
 14 16  2  0     0  0
 17 21  1  0     0  0
 18 22  1  0     0  0
 20 23  1  0     0  0
 23 24  1  0     0  0
 24 25  1  0     0  0
M  END
> <standard_type>
pIC50

> <# Confs.>
25

> <canonical_smiles>
ClC(N=C1CCCC)=C(CC(O)=O)N1CC2=CC=C(CC(O)=O)C=C2

> <standard_relation>
=

> <Publication_ID>
nan

> <predicted_activity_value>
5.045757490560675

> <actual_activity_value>
4.886056647693163

> <Compound>
22

> <standard_units>
nM

> hash
15933815746296400870

$$$$
22_
XXILIB    08252103443D 0   0.00000     0.00000

 25 26  0     1  0            999 V2000
   -3.5514    0.0514   -1.4977 Cl  0  0  0  0  0  1           0  0  0
    0.1761    2.3784   -2.2825 O   0  0  0  0  0  2           0  0  0
    3.5173   -5.3600   -2.3712 O   0  0  0  0  0  2           0  0  0
   -0.3006    1.5659   -4.3475 O   0  0  0  0  0  2           0  0  0
    4.2695   -7.2370   -1.3406 O   0  0  0  0  0  2           0  0  0
    0.0000   -0.0000    0.0000 N   0  0  0  0  0  3           0  0  0
   -2.0876    0.0134    0.7607 N   0  0  0  0  0  3           0  0  0
   -2.0963    0.0280   -0.6092 C   0  0  0  0  0  4           0  0  0
   -0.8178    0.0000    1.1140 C   0  0  0  0  0  4           0  0  0
   -0.8109    0.0232   -1.1184 C   0  0  0  0  0  4           0  0  0
    1.9916   -1.3968    0.0000 C   0  0  0  0  0  4           0  0  0
    3.0107   -4.0266    0.0437 C   0  0  0  0  0  4           0  0  0
    1.1250   -2.4972    0.0000 C   0  0  0  0  0  4           0  0  0
    3.3731   -1.6250    0.0249 C   0  0  0  0  0  4           0  0  0
    1.6295   -3.7996    0.0153 C   0  0  0  0  0  4           0  0  0
    3.8781   -2.9274    0.0408 C   0  0  0  0  0  4           0  0  0
   -0.1262    1.4389   -3.0083 C   0  0  0  0  0  4           0  0  0
    3.7617   -5.9793   -1.3428 C   0  0  0  0  0  4           0  0  0
    1.4502   -0.0000    0.0000 C   0  0  0  0  0  4           0  0  0
   -0.3354   -0.0151    2.5200 C   0  0  0  0  0  4           0  0  0
   -0.3220    0.0302   -2.5203 C   0  0  0  0  0  4           0  0  0
    3.5532   -5.4263    0.0398 C   0  0  0  0  0  4           0  0  0
   -1.4815   -0.0110    3.5271 C   0  0  0  0  0  4           0  0  0
   -0.9970   -0.0265    4.9747 C   0  0  0  0  0  4           0  0  0
   -2.1376   -0.0225    5.9818 C   0  0  0  0  0  4           0  0  0
  1  8  1  0     0  0
  2 17  2  0     0  0
  3 18  2  0     0  0
  4 17  1  0     0  0
  5 18  1  0     0  0
  6  9  1  0     0  0
  6 10  1  0     0  0
  6 19  1  0     0  0
  7  8  1  0     0  0
  7  9  2  0     0  0
  8 10  2  0     0  0
  9 20  1  0     0  0
 10 21  1  0     0  0
 11 13  2  0     0  0
 11 14  1  0     0  0
 11 19  1  0     0  0
 12 15  2  0     0  0
 12 16  1  0     0  0
 12 22  1  0     0  0
 13 15  1  0     0  0
 14 16  2  0     0  0
 17 21  1  0     0  0
 18 22  1  0     0  0
 20 23  1  0     0  0
 23 24  1  0     0  0
 24 25  1  0     0  0
M  END
> <standard_type>
pIC50

> <# Confs.>
25

> <canonical_smiles>
ClC(N=C1CCCC)=C(CC(O)=O)N1CC2=CC=C(CC(O)=O)C=C2

> <standard_relation>
=

> <Publication_ID>
nan

> <predicted_activity_value>
5.045757490560675

> <actual_activity_value>
4.886056647693163

> <Compound>
22

> <standard_units>
nM

> hash
15933815746296400870

$$$$
22_
XXILIB    08252103443D 0   0.00000     0.00000

 25 26  0     1  0            999 V2000
   -3.5514    0.0514   -1.4977 Cl  0  0  0  0  0  1           0  0  0
    0.9223    2.0622   -2.8958 O   0  0  0  0  0  2           0  0  0
    5.1530   -4.7394    1.7267 O   0  0  0  0  0  2           0  0  0
   -1.2297    1.9511   -3.6083 O   0  0  0  0  0  2           0  0  0
    5.1802   -6.8917    1.0069 O   0  0  0  0  0  2           0  0  0
    0.0000   -0.0000    0.0000 N   0  0  0  0  0  3           0  0  0
   -2.0876    0.0134    0.7607 N   0  0  0  0  0  3           0  0  0
   -2.0963    0.0280   -0.6092 C   0  0  0  0  0  4           0  0  0
   -0.8178    0.0000    1.1140 C   0  0  0  0  0  4           0  0  0
   -0.8109    0.0232   -1.1184 C   0  0  0  0  0  4           0  0  0
    1.9916   -1.3968   -0.0000 C   0  0  0  0  0  4           0  0  0
    3.0396   -4.0154    0.0310 C   0  0  0  0  0  4           0  0  0
    1.4543   -2.3696    0.8526 C   0  0  0  0  0  4           0  0  0
    3.0603   -1.7462   -0.8349 C   0  0  0  0  0  4           0  0  0
    1.9690   -3.6680    0.8635 C   0  0  0  0  0  4           0  0  0
    3.5757   -3.0446   -0.8238 C   0  0  0  0  0  4           0  0  0
   -0.1262    1.4389   -3.0083 C   0  0  0  0  0  4           0  0  0
    4.7087   -5.6198    0.9999 C   0  0  0  0  0  4           0  0  0
    1.4502    0.0000   -0.0000 C   0  0  0  0  0  4           0  0  0
   -0.3354   -0.0151    2.5200 C   0  0  0  0  0  4           0  0  0
   -0.3220    0.0302   -2.5203 C   0  0  0  0  0  4           0  0  0
    3.5795   -5.4161    0.0283 C   0  0  0  0  0  4           0  0  0
   -0.1329    1.3898    3.0794 C   0  0  0  0  0  4           0  0  0
    0.3626    1.3859    4.5234 C   0  0  0  0  0  4           0  0  0
    0.5656    2.7855    5.0845 C   0  0  0  0  0  4           0  0  0
  1  8  1  0     0  0
  2 17  2  0     0  0
  3 18  2  0     0  0
  4 17  1  0     0  0
  5 18  1  0     0  0
  6  9  1  0     0  0
  6 10  1  0     0  0
  6 19  1  0     0  0
  7  8  1  0     0  0
  7  9  2  0     0  0
  8 10  2  0     0  0
  9 20  1  0     0  0
 10 21  1  0     0  0
 11 13  2  0     0  0
 11 14  1  0     0  0
 11 19  1  0     0  0
 12 15  2  0     0  0
 12 16  1  0     0  0
 12 22  1  0     0  0
 13 15  1  0     0  0
 14 16  2  0     0  0
 17 21  1  0     0  0
 18 22  1  0     0  0
 20 23  1  0     0  0
 23 24  1  0     0  0
 24 25  1  0     0  0
M  END
> <standard_type>
pIC50

> <# Confs.>
25

> <canonical_smiles>
ClC(N=C1CCCC)=C(CC(O)=O)N1CC2=CC=C(CC(O)=O)C=C2

> <standard_relation>
=

> <Publication_ID>
nan

> <predicted_activity_value>
5.045757490560675

> <actual_activity_value>
4.886056647693163

> <Compound>
22

> <standard_units>
nM

> hash
15933815746296400870

$$$$
22_
XXILIB    08252103443D 0   0.00000     0.00000

 25 26  0     1  0            999 V2000
   -3.5514    0.0514   -1.4977 Cl  0  0  0  0  0  1           0  0  0
    0.9223    2.0622   -2.8958 O   0  0  0  0  0  2           0  0  0
    5.1408   -4.7441   -1.7398 O   0  0  0  0  0  2           0  0  0
   -1.2297    1.9511   -3.6083 O   0  0  0  0  0  2           0  0  0
    5.1984   -6.8846   -0.9873 O   0  0  0  0  0  2           0  0  0
    0.0000   -0.0000    0.0000 N   0  0  0  0  0  3           0  0  0
   -2.0876    0.0134    0.7607 N   0  0  0  0  0  3           0  0  0
   -2.0963    0.0280   -0.6092 C   0  0  0  0  0  4           0  0  0
   -0.8178    0.0000    1.1140 C   0  0  0  0  0  4           0  0  0
   -0.8109    0.0232   -1.1184 C   0  0  0  0  0  4           0  0  0
    1.9916   -1.3968    0.0000 C   0  0  0  0  0  4           0  0  0
    3.0397   -4.0154   -0.0308 C   0  0  0  0  0  4           0  0  0
    3.0442   -1.7534    0.8526 C   0  0  0  0  0  4           0  0  0
    1.4704   -2.3624   -0.8702 C   0  0  0  0  0  4           0  0  0
    3.5591   -3.0517    0.8419 C   0  0  0  0  0  4           0  0  0
    1.9856   -3.6609   -0.8815 C   0  0  0  0  0  4           0  0  0
   -0.1262    1.4389   -3.0083 C   0  0  0  0  0  4           0  0  0
    4.7018   -5.6225   -1.0074 C   0  0  0  0  0  4           0  0  0
    1.4502    0.0000   -0.0000 C   0  0  0  0  0  4           0  0  0
   -0.3354   -0.0151    2.5200 C   0  0  0  0  0  4           0  0  0
   -0.3220    0.0302   -2.5203 C   0  0  0  0  0  4           0  0  0
    3.5797   -5.4160   -0.0280 C   0  0  0  0  0  4           0  0  0
   -0.1329    1.3898    3.0794 C   0  0  0  0  0  4           0  0  0
    0.3626    1.3859    4.5234 C   0  0  0  0  0  4           0  0  0
    0.5656    2.7855    5.0845 C   0  0  0  0  0  4           0  0  0
  1  8  1  0     0  0
  2 17  2  0     0  0
  3 18  2  0     0  0
  4 17  1  0     0  0
  5 18  1  0     0  0
  6  9  1  0     0  0
  6 10  1  0     0  0
  6 19  1  0     0  0
  7  8  1  0     0  0
  7  9  2  0     0  0
  8 10  2  0     0  0
  9 20  1  0     0  0
 10 21  1  0     0  0
 11 13  2  0     0  0
 11 14  1  0     0  0
 11 19  1  0     0  0
 12 15  2  0     0  0
 12 16  1  0     0  0
 12 22  1  0     0  0
 13 15  1  0     0  0
 14 16  2  0     0  0
 17 21  1  0     0  0
 18 22  1  0     0  0
 20 23  1  0     0  0
 23 24  1  0     0  0
 24 25  1  0     0  0
M  END
> <standard_type>
pIC50

> <# Confs.>
25

> <canonical_smiles>
ClC(N=C1CCCC)=C(CC(O)=O)N1CC2=CC=C(CC(O)=O)C=C2

> <standard_relation>
=

> <Publication_ID>
nan

> <predicted_activity_value>
5.045757490560675

> <actual_activity_value>
4.886056647693163

> <Compound>
22

> <standard_units>
nM

> hash
15933815746296400870

$$$$
22_
XXILIB    08252103443D 0   0.00000     0.00000

 25 26  0     1  0            999 V2000
   -3.5514    0.0514   -1.4977 Cl  0  0  0  0  0  1           0  0  0
    0.1761    2.3784   -2.2825 O   0  0  0  0  0  2           0  0  0
    3.5173   -5.3600   -2.3712 O   0  0  0  0  0  2           0  0  0
   -0.3006    1.5659   -4.3475 O   0  0  0  0  0  2           0  0  0
    4.2695   -7.2370   -1.3406 O   0  0  0  0  0  2           0  0  0
    0.0000   -0.0000    0.0000 N   0  0  0  0  0  3           0  0  0
   -2.0876    0.0134    0.7607 N   0  0  0  0  0  3           0  0  0
   -2.0963    0.0280   -0.6092 C   0  0  0  0  0  4           0  0  0
   -0.8178    0.0000    1.1140 C   0  0  0  0  0  4           0  0  0
   -0.8109    0.0232   -1.1184 C   0  0  0  0  0  4           0  0  0
    1.9916   -1.3968    0.0000 C   0  0  0  0  0  4           0  0  0
    3.0107   -4.0266    0.0437 C   0  0  0  0  0  4           0  0  0
    1.1250   -2.4972    0.0000 C   0  0  0  0  0  4           0  0  0
    3.3731   -1.6250    0.0249 C   0  0  0  0  0  4           0  0  0
    1.6295   -3.7996    0.0153 C   0  0  0  0  0  4           0  0  0
    3.8781   -2.9274    0.0408 C   0  0  0  0  0  4           0  0  0
   -0.1262    1.4389   -3.0083 C   0  0  0  0  0  4           0  0  0
    3.7617   -5.9793   -1.3428 C   0  0  0  0  0  4           0  0  0
    1.4502   -0.0000    0.0000 C   0  0  0  0  0  4           0  0  0
   -0.3354   -0.0151    2.5200 C   0  0  0  0  0  4           0  0  0
   -0.3220    0.0302   -2.5203 C   0  0  0  0  0  4           0  0  0
    3.5532   -5.4263    0.0398 C   0  0  0  0  0  4           0  0  0
   -1.1006   -1.0116    3.3856 C   0  0  0  0  0  4           0  0  0
   -0.9829   -2.4471    2.8799 C   0  0  0  0  0  4           0  0  0
   -1.7449   -3.4436    3.7410 C   0  0  0  0  0  4           0  0  0
  1  8  1  0     0  0
  2 17  2  0     0  0
  3 18  2  0     0  0
  4 17  1  0     0  0
  5 18  1  0     0  0
  6  9  1  0     0  0
  6 10  1  0     0  0
  6 19  1  0     0  0
  7  8  1  0     0  0
  7  9  2  0     0  0
  8 10  2  0     0  0
  9 20  1  0     0  0
 10 21  1  0     0  0
 11 13  2  0     0  0
 11 14  1  0     0  0
 11 19  1  0     0  0
 12 15  2  0     0  0
 12 16  1  0     0  0
 12 22  1  0     0  0
 13 15  1  0     0  0
 14 16  2  0     0  0
 17 21  1  0     0  0
 18 22  1  0     0  0
 20 23  1  0     0  0
 23 24  1  0     0  0
 24 25  1  0     0  0
M  END
> <standard_type>
pIC50

> <# Confs.>
25

> <canonical_smiles>
ClC(N=C1CCCC)=C(CC(O)=O)N1CC2=CC=C(CC(O)=O)C=C2

> <standard_relation>
=

> <Publication_ID>
nan

> <predicted_activity_value>
5.045757490560675

> <actual_activity_value>
4.886056647693163

> <Compound>
22

> <standard_units>
nM

> hash
15933815746296400870

$$$$
22_
XXILIB    08252103443D 0   0.00000     0.00000

 25 26  0     1  0            999 V2000
   -3.5514    0.0514   -1.4977 Cl  0  0  0  0  0  1           0  0  0
    0.9223    2.0622   -2.8958 O   0  0  0  0  0  2           0  0  0
    1.9693   -5.9600    1.6835 O   0  0  0  0  0  2           0  0  0
   -1.2297    1.9511   -3.6083 O   0  0  0  0  0  2           0  0  0
    3.3643   -7.5879    0.9384 O   0  0  0  0  0  2           0  0  0
    0.0000   -0.0000    0.0000 N   0  0  0  0  0  3           0  0  0
   -2.0876    0.0134    0.7607 N   0  0  0  0  0  3           0  0  0
   -2.0963    0.0280   -0.6092 C   0  0  0  0  0  4           0  0  0
   -0.8178    0.0000    1.1140 C   0  0  0  0  0  4           0  0  0
   -0.8109    0.0232   -1.1184 C   0  0  0  0  0  4           0  0  0
    1.9916   -1.3968    0.0000 C   0  0  0  0  0  4           0  0  0
    3.0397   -4.0154   -0.0308 C   0  0  0  0  0  4           0  0  0
    3.0442   -1.7534    0.8526 C   0  0  0  0  0  4           0  0  0
    1.4704   -2.3624   -0.8702 C   0  0  0  0  0  4           0  0  0
    3.5591   -3.0517    0.8419 C   0  0  0  0  0  4           0  0  0
    1.9856   -3.6609   -0.8815 C   0  0  0  0  0  4           0  0  0
   -0.1262    1.4389   -3.0083 C   0  0  0  0  0  4           0  0  0
    2.8852   -6.3189    0.9535 C   0  0  0  0  0  4           0  0  0
    1.4502    0.0000   -0.0000 C   0  0  0  0  0  4           0  0  0
   -0.3354   -0.0151    2.5200 C   0  0  0  0  0  4           0  0  0
   -0.3220    0.0302   -2.5203 C   0  0  0  0  0  4           0  0  0
    3.5797   -5.4160   -0.0280 C   0  0  0  0  0  4           0  0  0
   -0.1329    1.3898    3.0794 C   0  0  0  0  0  4           0  0  0
    0.3626    1.3859    4.5234 C   0  0  0  0  0  4           0  0  0
    0.5656    2.7855    5.0845 C   0  0  0  0  0  4           0  0  0
  1  8  1  0     0  0
  2 17  2  0     0  0
  3 18  2  0     0  0
  4 17  1  0     0  0
  5 18  1  0     0  0
  6  9  1  0     0  0
  6 10  1  0     0  0
  6 19  1  0     0  0
  7  8  1  0     0  0
  7  9  2  0     0  0
  8 10  2  0     0  0
  9 20  1  0     0  0
 10 21  1  0     0  0
 11 13  2  0     0  0
 11 14  1  0     0  0
 11 19  1  0     0  0
 12 15  2  0     0  0
 12 16  1  0     0  0
 12 22  1  0     0  0
 13 15  1  0     0  0
 14 16  2  0     0  0
 17 21  1  0     0  0
 18 22  1  0     0  0
 20 23  1  0     0  0
 23 24  1  0     0  0
 24 25  1  0     0  0
M  END
> <standard_type>
pIC50

> <# Confs.>
25

> <canonical_smiles>
ClC(N=C1CCCC)=C(CC(O)=O)N1CC2=CC=C(CC(O)=O)C=C2

> <standard_relation>
=

> <Publication_ID>
nan

> <predicted_activity_value>
5.045757490560675

> <actual_activity_value>
4.886056647693163

> <Compound>
22

> <standard_units>
nM

> hash
15933815746296400870

$$$$
22_
XXILIB    08252103443D 0   0.00000     0.00000

 25 26  0     1  0            999 V2000
   -3.5514    0.0514   -1.4977 Cl  0  0  0  0  0  1           0  0  0
    0.1761    2.3784   -2.2825 O   0  0  0  0  0  2           0  0  0
    3.5173   -5.3600   -2.3712 O   0  0  0  0  0  2           0  0  0
   -0.3006    1.5659   -4.3475 O   0  0  0  0  0  2           0  0  0
    4.2695   -7.2370   -1.3406 O   0  0  0  0  0  2           0  0  0
    0.0000   -0.0000    0.0000 N   0  0  0  0  0  3           0  0  0
   -2.0876    0.0134    0.7607 N   0  0  0  0  0  3           0  0  0
   -2.0963    0.0280   -0.6092 C   0  0  0  0  0  4           0  0  0
   -0.8178    0.0000    1.1140 C   0  0  0  0  0  4           0  0  0
   -0.8109    0.0232   -1.1184 C   0  0  0  0  0  4           0  0  0
    1.9916   -1.3968    0.0000 C   0  0  0  0  0  4           0  0  0
    3.0107   -4.0266    0.0437 C   0  0  0  0  0  4           0  0  0
    1.1250   -2.4972    0.0000 C   0  0  0  0  0  4           0  0  0
    3.3731   -1.6250    0.0249 C   0  0  0  0  0  4           0  0  0
    1.6295   -3.7996    0.0153 C   0  0  0  0  0  4           0  0  0
    3.8781   -2.9274    0.0408 C   0  0  0  0  0  4           0  0  0
   -0.1262    1.4389   -3.0083 C   0  0  0  0  0  4           0  0  0
    3.7617   -5.9793   -1.3428 C   0  0  0  0  0  4           0  0  0
    1.4502   -0.0000    0.0000 C   0  0  0  0  0  4           0  0  0
   -0.3354   -0.0151    2.5200 C   0  0  0  0  0  4           0  0  0
   -0.3220    0.0302   -2.5203 C   0  0  0  0  0  4           0  0  0
    3.5532   -5.4263    0.0398 C   0  0  0  0  0  4           0  0  0
   -0.1329    1.3898    3.0794 C   0  0  0  0  0  4           0  0  0
    0.3626    1.3859    4.5234 C   0  0  0  0  0  4           0  0  0
    1.6976    0.6752    4.6902 C   0  0  0  0  0  4           0  0  0
  1  8  1  0     0  0
  2 17  2  0     0  0
  3 18  2  0     0  0
  4 17  1  0     0  0
  5 18  1  0     0  0
  6  9  1  0     0  0
  6 10  1  0     0  0
  6 19  1  0     0  0
  7  8  1  0     0  0
  7  9  2  0     0  0
  8 10  2  0     0  0
  9 20  1  0     0  0
 10 21  1  0     0  0
 11 13  2  0     0  0
 11 14  1  0     0  0
 11 19  1  0     0  0
 12 15  2  0     0  0
 12 16  1  0     0  0
 12 22  1  0     0  0
 13 15  1  0     0  0
 14 16  2  0     0  0
 17 21  1  0     0  0
 18 22  1  0     0  0
 20 23  1  0     0  0
 23 24  1  0     0  0
 24 25  1  0     0  0
M  END
> <standard_type>
pIC50

> <# Confs.>
25

> <canonical_smiles>
ClC(N=C1CCCC)=C(CC(O)=O)N1CC2=CC=C(CC(O)=O)C=C2

> <standard_relation>
=

> <Publication_ID>
nan

> <predicted_activity_value>
5.045757490560675

> <actual_activity_value>
4.886056647693163

> <Compound>
22

> <standard_units>
nM

> hash
15933815746296400870

$$$$
22_
XXILIB    08252103443D 0   0.00000     0.00000

 25 26  0     1  0            999 V2000
   -3.5514    0.0514   -1.4977 Cl  0  0  0  0  0  1           0  0  0
    0.9223    2.0622   -2.8958 O   0  0  0  0  0  2           0  0  0
    1.9693   -5.9600    1.6835 O   0  0  0  0  0  2           0  0  0
   -1.2297    1.9511   -3.6083 O   0  0  0  0  0  2           0  0  0
    3.3643   -7.5879    0.9384 O   0  0  0  0  0  2           0  0  0
    0.0000   -0.0000    0.0000 N   0  0  0  0  0  3           0  0  0
   -2.0876    0.0134    0.7607 N   0  0  0  0  0  3           0  0  0
   -2.0963    0.0280   -0.6092 C   0  0  0  0  0  4           0  0  0
   -0.8178    0.0000    1.1140 C   0  0  0  0  0  4           0  0  0
   -0.8109    0.0232   -1.1184 C   0  0  0  0  0  4           0  0  0
    1.9916   -1.3968    0.0000 C   0  0  0  0  0  4           0  0  0
    3.0397   -4.0154   -0.0308 C   0  0  0  0  0  4           0  0  0
    3.0442   -1.7534    0.8526 C   0  0  0  0  0  4           0  0  0
    1.4704   -2.3624   -0.8702 C   0  0  0  0  0  4           0  0  0
    3.5591   -3.0517    0.8419 C   0  0  0  0  0  4           0  0  0
    1.9856   -3.6609   -0.8815 C   0  0  0  0  0  4           0  0  0
   -0.1262    1.4389   -3.0083 C   0  0  0  0  0  4           0  0  0
    2.8852   -6.3189    0.9535 C   0  0  0  0  0  4           0  0  0
    1.4502    0.0000   -0.0000 C   0  0  0  0  0  4           0  0  0
   -0.3354   -0.0151    2.5200 C   0  0  0  0  0  4           0  0  0
   -0.3220    0.0302   -2.5203 C   0  0  0  0  0  4           0  0  0
    3.5797   -5.4160   -0.0280 C   0  0  0  0  0  4           0  0  0
   -0.1610   -1.4318    3.0588 C   0  0  0  0  0  4           0  0  0
    0.3342   -1.4589    4.5026 C   0  0  0  0  0  4           0  0  0
    0.5092   -2.8704    5.0431 C   0  0  0  0  0  4           0  0  0
  1  8  1  0     0  0
  2 17  2  0     0  0
  3 18  2  0     0  0
  4 17  1  0     0  0
  5 18  1  0     0  0
  6  9  1  0     0  0
  6 10  1  0     0  0
  6 19  1  0     0  0
  7  8  1  0     0  0
  7  9  2  0     0  0
  8 10  2  0     0  0
  9 20  1  0     0  0
 10 21  1  0     0  0
 11 13  2  0     0  0
 11 14  1  0     0  0
 11 19  1  0     0  0
 12 15  2  0     0  0
 12 16  1  0     0  0
 12 22  1  0     0  0
 13 15  1  0     0  0
 14 16  2  0     0  0
 17 21  1  0     0  0
 18 22  1  0     0  0
 20 23  1  0     0  0
 23 24  1  0     0  0
 24 25  1  0     0  0
M  END
> <standard_type>
pIC50

> <# Confs.>
25

> <canonical_smiles>
ClC(N=C1CCCC)=C(CC(O)=O)N1CC2=CC=C(CC(O)=O)C=C2

> <standard_relation>
=

> <Publication_ID>
nan

> <predicted_activity_value>
5.045757490560675

> <actual_activity_value>
4.886056647693163

> <Compound>
22

> <standard_units>
nM

> hash
15933815746296400870

$$$$
22_
XXILIB    08252103443D 0   0.00000     0.00000

 25 26  0     1  0            999 V2000
   -3.5514    0.0514   -1.4977 Cl  0  0  0  0  0  1           0  0  0
    0.8622   -2.0296   -2.9370 O   0  0  0  0  0  2           0  0  0
    5.1530    4.7394   -1.7267 O   0  0  0  0  0  2           0  0  0
   -1.2973   -1.8546   -3.6131 O   0  0  0  0  0  2           0  0  0
    5.1802    6.8917   -1.0069 O   0  0  0  0  0  2           0  0  0
    0.0000   -0.0000    0.0000 N   0  0  0  0  0  3           0  0  0
   -2.0876    0.0134    0.7607 N   0  0  0  0  0  3           0  0  0
   -2.0963    0.0280   -0.6092 C   0  0  0  0  0  4           0  0  0
   -0.8178    0.0000    1.1140 C   0  0  0  0  0  4           0  0  0
   -0.8109    0.0232   -1.1184 C   0  0  0  0  0  4           0  0  0
    1.9916    1.3968    0.0000 C   0  0  0  0  0  4           0  0  0
    3.0396    4.0154   -0.0310 C   0  0  0  0  0  4           0  0  0
    1.4543    2.3696   -0.8526 C   0  0  0  0  0  4           0  0  0
    3.0603    1.7462    0.8349 C   0  0  0  0  0  4           0  0  0
    1.9690    3.6680   -0.8635 C   0  0  0  0  0  4           0  0  0
    3.5757    3.0446    0.8238 C   0  0  0  0  0  4           0  0  0
   -0.1676   -1.3736   -3.0367 C   0  0  0  0  0  4           0  0  0
    4.7087    5.6198   -0.9999 C   0  0  0  0  0  4           0  0  0
    1.4502   -0.0000    0.0000 C   0  0  0  0  0  4           0  0  0
   -0.3354   -0.0151    2.5200 C   0  0  0  0  0  4           0  0  0
   -0.3220    0.0302   -2.5203 C   0  0  0  0  0  4           0  0  0
    3.5795    5.4161   -0.0283 C   0  0  0  0  0  4           0  0  0
   -0.1610   -1.4318    3.0588 C   0  0  0  0  0  4           0  0  0
    0.3342   -1.4589    4.5026 C   0  0  0  0  0  4           0  0  0
    0.5092   -2.8704    5.0431 C   0  0  0  0  0  4           0  0  0
  1  8  1  0     0  0
  2 17  2  0     0  0
  3 18  2  0     0  0
  4 17  1  0     0  0
  5 18  1  0     0  0
  6  9  1  0     0  0
  6 10  1  0     0  0
  6 19  1  0     0  0
  7  8  1  0     0  0
  7  9  2  0     0  0
  8 10  2  0     0  0
  9 20  1  0     0  0
 10 21  1  0     0  0
 11 13  2  0     0  0
 11 14  1  0     0  0
 11 19  1  0     0  0
 12 15  2  0     0  0
 12 16  1  0     0  0
 12 22  1  0     0  0
 13 15  1  0     0  0
 14 16  2  0     0  0
 17 21  1  0     0  0
 18 22  1  0     0  0
 20 23  1  0     0  0
 23 24  1  0     0  0
 24 25  1  0     0  0
M  END
> <standard_type>
pIC50

> <# Confs.>
25

> <canonical_smiles>
ClC(N=C1CCCC)=C(CC(O)=O)N1CC2=CC=C(CC(O)=O)C=C2

> <standard_relation>
=

> <Publication_ID>
nan

> <predicted_activity_value>
5.045757490560675

> <actual_activity_value>
4.886056647693163

> <Compound>
22

> <standard_units>
nM

> hash
15933815746296400870

$$$$
22_
XXILIB    08252103443D 0   0.00000     0.00000

 25 26  0     1  0            999 V2000
   -3.5514    0.0514   -1.4977 Cl  0  0  0  0  0  1           0  0  0
    0.9223    2.0622   -2.8958 O   0  0  0  0  0  2           0  0  0
    5.4867   -4.7440   -1.3435 O   0  0  0  0  0  2           0  0  0
   -1.2297    1.9511   -3.6083 O   0  0  0  0  0  2           0  0  0
    4.7726   -6.8945   -1.4732 O   0  0  0  0  0  2           0  0  0
    0.0000   -0.0000    0.0000 N   0  0  0  0  0  3           0  0  0
   -2.0876    0.0134    0.7607 N   0  0  0  0  0  3           0  0  0
   -2.0963    0.0280   -0.6092 C   0  0  0  0  0  4           0  0  0
   -0.8178    0.0000    1.1140 C   0  0  0  0  0  4           0  0  0
   -0.8109    0.0232   -1.1184 C   0  0  0  0  0  4           0  0  0
    1.9916   -1.3968    0.0000 C   0  0  0  0  0  4           0  0  0
    3.0397   -4.0154   -0.0308 C   0  0  0  0  0  4           0  0  0
    3.0442   -1.7534    0.8526 C   0  0  0  0  0  4           0  0  0
    1.4704   -2.3624   -0.8702 C   0  0  0  0  0  4           0  0  0
    3.5591   -3.0517    0.8419 C   0  0  0  0  0  4           0  0  0
    1.9856   -3.6609   -0.8815 C   0  0  0  0  0  4           0  0  0
   -0.1262    1.4389   -3.0083 C   0  0  0  0  0  4           0  0  0
    4.7018   -5.6225   -1.0074 C   0  0  0  0  0  4           0  0  0
    1.4502    0.0000   -0.0000 C   0  0  0  0  0  4           0  0  0
   -0.3354   -0.0151    2.5200 C   0  0  0  0  0  4           0  0  0
   -0.3220    0.0302   -2.5203 C   0  0  0  0  0  4           0  0  0
    3.5797   -5.4160   -0.0280 C   0  0  0  0  0  4           0  0  0
   -0.1610   -1.4318    3.0588 C   0  0  0  0  0  4           0  0  0
    0.3342   -1.4589    4.5026 C   0  0  0  0  0  4           0  0  0
    0.5092   -2.8704    5.0431 C   0  0  0  0  0  4           0  0  0
  1  8  1  0     0  0
  2 17  2  0     0  0
  3 18  2  0     0  0
  4 17  1  0     0  0
  5 18  1  0     0  0
  6  9  1  0     0  0
  6 10  1  0     0  0
  6 19  1  0     0  0
  7  8  1  0     0  0
  7  9  2  0     0  0
  8 10  2  0     0  0
  9 20  1  0     0  0
 10 21  1  0     0  0
 11 13  2  0     0  0
 11 14  1  0     0  0
 11 19  1  0     0  0
 12 15  2  0     0  0
 12 16  1  0     0  0
 12 22  1  0     0  0
 13 15  1  0     0  0
 14 16  2  0     0  0
 17 21  1  0     0  0
 18 22  1  0     0  0
 20 23  1  0     0  0
 23 24  1  0     0  0
 24 25  1  0     0  0
M  END
> <standard_type>
pIC50

> <# Confs.>
25

> <canonical_smiles>
ClC(N=C1CCCC)=C(CC(O)=O)N1CC2=CC=C(CC(O)=O)C=C2

> <standard_relation>
=

> <Publication_ID>
nan

> <predicted_activity_value>
5.045757490560675

> <actual_activity_value>
4.886056647693163

> <Compound>
22

> <standard_units>
nM

> hash
15933815746296400870

$$$$
22_
XXILIB    08252103443D 0   0.00000     0.00000

 25 26  0     1  0            999 V2000
   -3.5514    0.0514   -1.4977 Cl  0  0  0  0  0  1           0  0  0
    0.8622   -2.0296   -2.9370 O   0  0  0  0  0  2           0  0  0
    5.1530    4.7394   -1.7267 O   0  0  0  0  0  2           0  0  0
   -1.2973   -1.8546   -3.6131 O   0  0  0  0  0  2           0  0  0
    5.1802    6.8917   -1.0069 O   0  0  0  0  0  2           0  0  0
    0.0000   -0.0000    0.0000 N   0  0  0  0  0  3           0  0  0
   -2.0876    0.0134    0.7607 N   0  0  0  0  0  3           0  0  0
   -2.0963    0.0280   -0.6092 C   0  0  0  0  0  4           0  0  0
   -0.8178    0.0000    1.1140 C   0  0  0  0  0  4           0  0  0
   -0.8109    0.0232   -1.1184 C   0  0  0  0  0  4           0  0  0
    1.9916    1.3968    0.0000 C   0  0  0  0  0  4           0  0  0
    3.0396    4.0154   -0.0310 C   0  0  0  0  0  4           0  0  0
    1.4543    2.3696   -0.8526 C   0  0  0  0  0  4           0  0  0
    3.0603    1.7462    0.8349 C   0  0  0  0  0  4           0  0  0
    1.9690    3.6680   -0.8635 C   0  0  0  0  0  4           0  0  0
    3.5757    3.0446    0.8238 C   0  0  0  0  0  4           0  0  0
   -0.1676   -1.3736   -3.0367 C   0  0  0  0  0  4           0  0  0
    4.7087    5.6198   -0.9999 C   0  0  0  0  0  4           0  0  0
    1.4502   -0.0000    0.0000 C   0  0  0  0  0  4           0  0  0
   -0.3354   -0.0151    2.5200 C   0  0  0  0  0  4           0  0  0
   -0.3220    0.0302   -2.5203 C   0  0  0  0  0  4           0  0  0
    3.5795    5.4161   -0.0283 C   0  0  0  0  0  4           0  0  0
   -0.1329    1.3898    3.0794 C   0  0  0  0  0  4           0  0  0
    0.3626    1.3859    4.5234 C   0  0  0  0  0  4           0  0  0
    0.5656    2.7855    5.0845 C   0  0  0  0  0  4           0  0  0
  1  8  1  0     0  0
  2 17  2  0     0  0
  3 18  2  0     0  0
  4 17  1  0     0  0
  5 18  1  0     0  0
  6  9  1  0     0  0
  6 10  1  0     0  0
  6 19  1  0     0  0
  7  8  1  0     0  0
  7  9  2  0     0  0
  8 10  2  0     0  0
  9 20  1  0     0  0
 10 21  1  0     0  0
 11 13  2  0     0  0
 11 14  1  0     0  0
 11 19  1  0     0  0
 12 15  2  0     0  0
 12 16  1  0     0  0
 12 22  1  0     0  0
 13 15  1  0     0  0
 14 16  2  0     0  0
 17 21  1  0     0  0
 18 22  1  0     0  0
 20 23  1  0     0  0
 23 24  1  0     0  0
 24 25  1  0     0  0
M  END
> <standard_type>
pIC50

> <# Confs.>
25

> <canonical_smiles>
ClC(N=C1CCCC)=C(CC(O)=O)N1CC2=CC=C(CC(O)=O)C=C2

> <standard_relation>
=

> <Publication_ID>
nan

> <predicted_activity_value>
5.045757490560675

> <actual_activity_value>
4.886056647693163

> <Compound>
22

> <standard_units>
nM

> hash
15933815746296400870

$$$$
22_
XXILIB    08252103443D 0   0.00000     0.00000

 25 26  0     1  0            999 V2000
   -3.5514    0.0514   -1.4977 Cl  0  0  0  0  0  1           0  0  0
    0.8622   -2.0296   -2.9370 O   0  0  0  0  0  2           0  0  0
    1.9566    5.9649    1.6699 O   0  0  0  0  0  2           0  0  0
   -1.2973   -1.8546   -3.6131 O   0  0  0  0  0  2           0  0  0
    3.3820    7.5810    0.9574 O   0  0  0  0  0  2           0  0  0
    0.0000   -0.0000    0.0000 N   0  0  0  0  0  3           0  0  0
   -2.0876    0.0134    0.7607 N   0  0  0  0  0  3           0  0  0
   -2.0963    0.0280   -0.6092 C   0  0  0  0  0  4           0  0  0
   -0.8178    0.0000    1.1140 C   0  0  0  0  0  4           0  0  0
   -0.8109    0.0232   -1.1184 C   0  0  0  0  0  4           0  0  0
    1.9916    1.3968    0.0000 C   0  0  0  0  0  4           0  0  0
    3.0396    4.0154   -0.0310 C   0  0  0  0  0  4           0  0  0
    1.4543    2.3696   -0.8526 C   0  0  0  0  0  4           0  0  0
    3.0603    1.7462    0.8349 C   0  0  0  0  0  4           0  0  0
    1.9690    3.6680   -0.8635 C   0  0  0  0  0  4           0  0  0
    3.5757    3.0446    0.8238 C   0  0  0  0  0  4           0  0  0
   -0.1676   -1.3736   -3.0367 C   0  0  0  0  0  4           0  0  0
    2.8778    6.3218    0.9456 C   0  0  0  0  0  4           0  0  0
    1.4502   -0.0000    0.0000 C   0  0  0  0  0  4           0  0  0
   -0.3354   -0.0151    2.5200 C   0  0  0  0  0  4           0  0  0
   -0.3220    0.0302   -2.5203 C   0  0  0  0  0  4           0  0  0
    3.5795    5.4161   -0.0283 C   0  0  0  0  0  4           0  0  0
   -0.1610   -1.4318    3.0588 C   0  0  0  0  0  4           0  0  0
    0.3342   -1.4589    4.5026 C   0  0  0  0  0  4           0  0  0
    0.5092   -2.8704    5.0431 C   0  0  0  0  0  4           0  0  0
  1  8  1  0     0  0
  2 17  2  0     0  0
  3 18  2  0     0  0
  4 17  1  0     0  0
  5 18  1  0     0  0
  6  9  1  0     0  0
  6 10  1  0     0  0
  6 19  1  0     0  0
  7  8  1  0     0  0
  7  9  2  0     0  0
  8 10  2  0     0  0
  9 20  1  0     0  0
 10 21  1  0     0  0
 11 13  2  0     0  0
 11 14  1  0     0  0
 11 19  1  0     0  0
 12 15  2  0     0  0
 12 16  1  0     0  0
 12 22  1  0     0  0
 13 15  1  0     0  0
 14 16  2  0     0  0
 17 21  1  0     0  0
 18 22  1  0     0  0
 20 23  1  0     0  0
 23 24  1  0     0  0
 24 25  1  0     0  0
M  END
> <standard_type>
pIC50

> <# Confs.>
25

> <canonical_smiles>
ClC(N=C1CCCC)=C(CC(O)=O)N1CC2=CC=C(CC(O)=O)C=C2

> <standard_relation>
=

> <Publication_ID>
nan

> <predicted_activity_value>
5.045757490560675

> <actual_activity_value>
4.886056647693163

> <Compound>
22

> <standard_units>
nM

> hash
15933815746296400870

$$$$
22_
XXILIB    08252103443D 0   0.00000     0.00000

 25 26  0     1  0            999 V2000
   -3.5514    0.0514   -1.4977 Cl  0  0  0  0  0  1           0  0  0
    0.1068   -2.3360   -2.3301 O   0  0  0  0  0  2           0  0  0
    3.5173    5.3600    2.3712 O   0  0  0  0  0  2           0  0  0
   -0.3822   -1.4747   -4.3722 O   0  0  0  0  0  2           0  0  0
    4.2695    7.2370    1.3406 O   0  0  0  0  0  2           0  0  0
    0.0000   -0.0000    0.0000 N   0  0  0  0  0  3           0  0  0
   -2.0876    0.0134    0.7607 N   0  0  0  0  0  3           0  0  0
   -2.0963    0.0280   -0.6092 C   0  0  0  0  0  4           0  0  0
   -0.8178    0.0000    1.1140 C   0  0  0  0  0  4           0  0  0
   -0.8109    0.0232   -1.1184 C   0  0  0  0  0  4           0  0  0
    1.9916    1.3968    0.0000 C   0  0  0  0  0  4           0  0  0
    3.0107    4.0266   -0.0437 C   0  0  0  0  0  4           0  0  0
    1.1250    2.4972    0.0000 C   0  0  0  0  0  4           0  0  0
    3.3731    1.6250   -0.0249 C   0  0  0  0  0  4           0  0  0
    1.6295    3.7996   -0.0153 C   0  0  0  0  0  4           0  0  0
    3.8781    2.9274   -0.0408 C   0  0  0  0  0  4           0  0  0
   -0.1676   -1.3736   -3.0367 C   0  0  0  0  0  4           0  0  0
    3.7617    5.9793    1.3428 C   0  0  0  0  0  4           0  0  0
    1.4502    0.0000    0.0000 C   0  0  0  0  0  4           0  0  0
   -0.3354   -0.0151    2.5200 C   0  0  0  0  0  4           0  0  0
   -0.3220    0.0302   -2.5203 C   0  0  0  0  0  4           0  0  0
    3.5532    5.4263   -0.0398 C   0  0  0  0  0  4           0  0  0
   -0.1610   -1.4318    3.0588 C   0  0  0  0  0  4           0  0  0
   -1.4600   -2.2337    3.0459 C   0  0  0  0  0  4           0  0  0
   -1.2897   -3.6472    3.5827 C   0  0  0  0  0  4           0  0  0
  1  8  1  0     0  0
  2 17  2  0     0  0
  3 18  2  0     0  0
  4 17  1  0     0  0
  5 18  1  0     0  0
  6  9  1  0     0  0
  6 10  1  0     0  0
  6 19  1  0     0  0
  7  8  1  0     0  0
  7  9  2  0     0  0
  8 10  2  0     0  0
  9 20  1  0     0  0
 10 21  1  0     0  0
 11 13  2  0     0  0
 11 14  1  0     0  0
 11 19  1  0     0  0
 12 15  2  0     0  0
 12 16  1  0     0  0
 12 22  1  0     0  0
 13 15  1  0     0  0
 14 16  2  0     0  0
 17 21  1  0     0  0
 18 22  1  0     0  0
 20 23  1  0     0  0
 23 24  1  0     0  0
 24 25  1  0     0  0
M  END
> <standard_type>
pIC50

> <# Confs.>
25

> <canonical_smiles>
ClC(N=C1CCCC)=C(CC(O)=O)N1CC2=CC=C(CC(O)=O)C=C2

> <standard_relation>
=

> <Publication_ID>
nan

> <predicted_activity_value>
5.045757490560675

> <actual_activity_value>
4.886056647693163

> <Compound>
22

> <standard_units>
nM

> hash
15933815746296400870

$$$$
22_
XXILIB    08252103443D 0   0.00000     0.00000

 25 26  0     1  0            999 V2000
   -3.5514    0.0514   -1.4977 Cl  0  0  0  0  0  1           0  0  0
    0.8622   -2.0296   -2.9370 O   0  0  0  0  0  2           0  0  0
    1.9566    5.9649    1.6699 O   0  0  0  0  0  2           0  0  0
   -1.2973   -1.8546   -3.6131 O   0  0  0  0  0  2           0  0  0
    3.3820    7.5810    0.9574 O   0  0  0  0  0  2           0  0  0
    0.0000   -0.0000    0.0000 N   0  0  0  0  0  3           0  0  0
   -2.0876    0.0134    0.7607 N   0  0  0  0  0  3           0  0  0
   -2.0963    0.0280   -0.6092 C   0  0  0  0  0  4           0  0  0
   -0.8178    0.0000    1.1140 C   0  0  0  0  0  4           0  0  0
   -0.8109    0.0232   -1.1184 C   0  0  0  0  0  4           0  0  0
    1.9916    1.3968    0.0000 C   0  0  0  0  0  4           0  0  0
    3.0396    4.0154   -0.0310 C   0  0  0  0  0  4           0  0  0
    1.4543    2.3696   -0.8526 C   0  0  0  0  0  4           0  0  0
    3.0603    1.7462    0.8349 C   0  0  0  0  0  4           0  0  0
    1.9690    3.6680   -0.8635 C   0  0  0  0  0  4           0  0  0
    3.5757    3.0446    0.8238 C   0  0  0  0  0  4           0  0  0
   -0.1676   -1.3736   -3.0367 C   0  0  0  0  0  4           0  0  0
    2.8778    6.3218    0.9456 C   0  0  0  0  0  4           0  0  0
    1.4502   -0.0000    0.0000 C   0  0  0  0  0  4           0  0  0
   -0.3354   -0.0151    2.5200 C   0  0  0  0  0  4           0  0  0
   -0.3220    0.0302   -2.5203 C   0  0  0  0  0  4           0  0  0
    3.5795    5.4161   -0.0283 C   0  0  0  0  0  4           0  0  0
   -0.1329    1.3898    3.0794 C   0  0  0  0  0  4           0  0  0
    0.3626    1.3859    4.5234 C   0  0  0  0  0  4           0  0  0
    0.5656    2.7855    5.0845 C   0  0  0  0  0  4           0  0  0
  1  8  1  0     0  0
  2 17  2  0     0  0
  3 18  2  0     0  0
  4 17  1  0     0  0
  5 18  1  0     0  0
  6  9  1  0     0  0
  6 10  1  0     0  0
  6 19  1  0     0  0
  7  8  1  0     0  0
  7  9  2  0     0  0
  8 10  2  0     0  0
  9 20  1  0     0  0
 10 21  1  0     0  0
 11 13  2  0     0  0
 11 14  1  0     0  0
 11 19  1  0     0  0
 12 15  2  0     0  0
 12 16  1  0     0  0
 12 22  1  0     0  0
 13 15  1  0     0  0
 14 16  2  0     0  0
 17 21  1  0     0  0
 18 22  1  0     0  0
 20 23  1  0     0  0
 23 24  1  0     0  0
 24 25  1  0     0  0
M  END
> <standard_type>
pIC50

> <# Confs.>
25

> <canonical_smiles>
ClC(N=C1CCCC)=C(CC(O)=O)N1CC2=CC=C(CC(O)=O)C=C2

> <standard_relation>
=

> <Publication_ID>
nan

> <predicted_activity_value>
5.045757490560675

> <actual_activity_value>
4.886056647693163

> <Compound>
22

> <standard_units>
nM

> hash
15933815746296400870

$$$$
22_
XXILIB    08252103443D 0   0.00000     0.00000

 25 26  0     1  0            999 V2000
   -3.5514    0.0514   -1.4977 Cl  0  0  0  0  0  1           0  0  0
    0.1068   -2.3360   -2.3301 O   0  0  0  0  0  2           0  0  0
    3.5173    5.3600    2.3712 O   0  0  0  0  0  2           0  0  0
   -0.3822   -1.4747   -4.3722 O   0  0  0  0  0  2           0  0  0
    4.2695    7.2370    1.3406 O   0  0  0  0  0  2           0  0  0
    0.0000   -0.0000    0.0000 N   0  0  0  0  0  3           0  0  0
   -2.0876    0.0134    0.7607 N   0  0  0  0  0  3           0  0  0
   -2.0963    0.0280   -0.6092 C   0  0  0  0  0  4           0  0  0
   -0.8178    0.0000    1.1140 C   0  0  0  0  0  4           0  0  0
   -0.8109    0.0232   -1.1184 C   0  0  0  0  0  4           0  0  0
    1.9916    1.3968    0.0000 C   0  0  0  0  0  4           0  0  0
    3.0107    4.0266   -0.0437 C   0  0  0  0  0  4           0  0  0
    1.1250    2.4972    0.0000 C   0  0  0  0  0  4           0  0  0
    3.3731    1.6250   -0.0249 C   0  0  0  0  0  4           0  0  0
    1.6295    3.7996   -0.0153 C   0  0  0  0  0  4           0  0  0
    3.8781    2.9274   -0.0408 C   0  0  0  0  0  4           0  0  0
   -0.1676   -1.3736   -3.0367 C   0  0  0  0  0  4           0  0  0
    3.7617    5.9793    1.3428 C   0  0  0  0  0  4           0  0  0
    1.4502    0.0000    0.0000 C   0  0  0  0  0  4           0  0  0
   -0.3354   -0.0151    2.5200 C   0  0  0  0  0  4           0  0  0
   -0.3220    0.0302   -2.5203 C   0  0  0  0  0  4           0  0  0
    3.5532    5.4263   -0.0398 C   0  0  0  0  0  4           0  0  0
   -1.4815   -0.0110    3.5271 C   0  0  0  0  0  4           0  0  0
   -0.9970   -0.0265    4.9747 C   0  0  0  0  0  4           0  0  0
   -2.1376   -0.0225    5.9818 C   0  0  0  0  0  4           0  0  0
  1  8  1  0     0  0
  2 17  2  0     0  0
  3 18  2  0     0  0
  4 17  1  0     0  0
  5 18  1  0     0  0
  6  9  1  0     0  0
  6 10  1  0     0  0
  6 19  1  0     0  0
  7  8  1  0     0  0
  7  9  2  0     0  0
  8 10  2  0     0  0
  9 20  1  0     0  0
 10 21  1  0     0  0
 11 13  2  0     0  0
 11 14  1  0     0  0
 11 19  1  0     0  0
 12 15  2  0     0  0
 12 16  1  0     0  0
 12 22  1  0     0  0
 13 15  1  0     0  0
 14 16  2  0     0  0
 17 21  1  0     0  0
 18 22  1  0     0  0
 20 23  1  0     0  0
 23 24  1  0     0  0
 24 25  1  0     0  0
M  END
> <standard_type>
pIC50

> <# Confs.>
25

> <canonical_smiles>
ClC(N=C1CCCC)=C(CC(O)=O)N1CC2=CC=C(CC(O)=O)C=C2

> <standard_relation>
=

> <Publication_ID>
nan

> <predicted_activity_value>
5.045757490560675

> <actual_activity_value>
4.886056647693163

> <Compound>
22

> <standard_units>
nM

> hash
15933815746296400870

$$$$
22_
XXILIB    08252103443D 0   0.00000     0.00000

 25 26  0     1  0            999 V2000
   -3.5514    0.0514   -1.4977 Cl  0  0  0  0  0  1           0  0  0
    0.1761    2.3784   -2.2825 O   0  0  0  0  0  2           0  0  0
    3.8611   -6.7356   -2.0059 O   0  0  0  0  0  2           0  0  0
   -0.3006    1.5659   -4.3475 O   0  0  0  0  0  2           0  0  0
    1.7393   -6.3991   -1.2736 O   0  0  0  0  0  2           0  0  0
    0.0000   -0.0000    0.0000 N   0  0  0  0  0  3           0  0  0
   -2.0876    0.0134    0.7607 N   0  0  0  0  0  3           0  0  0
   -2.0963    0.0280   -0.6092 C   0  0  0  0  0  4           0  0  0
   -0.8178    0.0000    1.1140 C   0  0  0  0  0  4           0  0  0
   -0.8109    0.0232   -1.1184 C   0  0  0  0  0  4           0  0  0
    1.9916   -1.3968    0.0000 C   0  0  0  0  0  4           0  0  0
    2.9701   -4.0424   -0.0001 C   0  0  0  0  0  4           0  0  0
    2.2492   -2.0615   -1.2058 C   0  0  0  0  0  4           0  0  0
    2.2257   -2.0697    1.2057 C   0  0  0  0  0  4           0  0  0
    2.7397   -3.3693   -1.2059 C   0  0  0  0  0  4           0  0  0
    2.7157   -3.3779    1.2058 C   0  0  0  0  0  4           0  0  0
   -0.1262    1.4389   -3.0083 C   0  0  0  0  0  4           0  0  0
    3.0848   -6.2473   -1.1935 C   0  0  0  0  0  4           0  0  0
    1.4502   -0.0000    0.0000 C   0  0  0  0  0  4           0  0  0
   -0.3354   -0.0151    2.5200 C   0  0  0  0  0  4           0  0  0
   -0.3220    0.0302   -2.5203 C   0  0  0  0  0  4           0  0  0
    3.5162   -5.4406   -0.0002 C   0  0  0  0  0  4           0  0  0
   -1.0807    0.9837    3.4002 C   0  0  0  0  0  4           0  0  0
   -0.5929    0.9764    4.8468 C   0  0  0  0  0  4           0  0  0
   -1.3342    1.9714    5.7275 C   0  0  0  0  0  4           0  0  0
  1  8  1  0     0  0
  2 17  2  0     0  0
  3 18  2  0     0  0
  4 17  1  0     0  0
  5 18  1  0     0  0
  6  9  1  0     0  0
  6 10  1  0     0  0
  6 19  1  0     0  0
  7  8  1  0     0  0
  7  9  2  0     0  0
  8 10  2  0     0  0
  9 20  1  0     0  0
 10 21  1  0     0  0
 11 13  2  0     0  0
 11 14  1  0     0  0
 11 19  1  0     0  0
 12 15  2  0     0  0
 12 16  1  0     0  0
 12 22  1  0     0  0
 13 15  1  0     0  0
 14 16  2  0     0  0
 17 21  1  0     0  0
 18 22  1  0     0  0
 20 23  1  0     0  0
 23 24  1  0     0  0
 24 25  1  0     0  0
M  END
> <standard_type>
pIC50

> <# Confs.>
25

> <canonical_smiles>
ClC(N=C1CCCC)=C(CC(O)=O)N1CC2=CC=C(CC(O)=O)C=C2

> <standard_relation>
=

> <Publication_ID>
nan

> <predicted_activity_value>
5.045757490560675

> <actual_activity_value>
4.886056647693163

> <Compound>
22

> <standard_units>
nM

> hash
15933815746296400870

$$$$
22_
XXILIB    08252103443D 0   0.00000     0.00000

 25 26  0     1  0            999 V2000
   -3.5514    0.0514   -1.4977 Cl  0  0  0  0  0  1           0  0  0
    0.1068   -2.3360   -2.3301 O   0  0  0  0  0  2           0  0  0
    1.9693    5.9600   -1.6835 O   0  0  0  0  0  2           0  0  0
   -0.3822   -1.4747   -4.3722 O   0  0  0  0  0  2           0  0  0
    3.3643    7.5879   -0.9384 O   0  0  0  0  0  2           0  0  0
    0.0000   -0.0000    0.0000 N   0  0  0  0  0  3           0  0  0
   -2.0876    0.0134    0.7607 N   0  0  0  0  0  3           0  0  0
   -2.0963    0.0280   -0.6092 C   0  0  0  0  0  4           0  0  0
   -0.8178    0.0000    1.1140 C   0  0  0  0  0  4           0  0  0
   -0.8109    0.0232   -1.1184 C   0  0  0  0  0  4           0  0  0
    1.9916    1.3968    0.0000 C   0  0  0  0  0  4           0  0  0
    3.0397    4.0154    0.0308 C   0  0  0  0  0  4           0  0  0
    3.0442    1.7534   -0.8526 C   0  0  0  0  0  4           0  0  0
    1.4704    2.3624    0.8702 C   0  0  0  0  0  4           0  0  0
    3.5591    3.0517   -0.8419 C   0  0  0  0  0  4           0  0  0
    1.9856    3.6609    0.8815 C   0  0  0  0  0  4           0  0  0
   -0.1676   -1.3736   -3.0367 C   0  0  0  0  0  4           0  0  0
    2.8852    6.3189   -0.9535 C   0  0  0  0  0  4           0  0  0
    1.4502   -0.0000    0.0000 C   0  0  0  0  0  4           0  0  0
   -0.3354   -0.0151    2.5200 C   0  0  0  0  0  4           0  0  0
   -0.3220    0.0302   -2.5203 C   0  0  0  0  0  4           0  0  0
    3.5797    5.4160    0.0280 C   0  0  0  0  0  4           0  0  0
   -1.1006   -1.0116    3.3856 C   0  0  0  0  0  4           0  0  0
   -0.9829   -2.4471    2.8799 C   0  0  0  0  0  4           0  0  0
   -1.7449   -3.4436    3.7410 C   0  0  0  0  0  4           0  0  0
  1  8  1  0     0  0
  2 17  2  0     0  0
  3 18  2  0     0  0
  4 17  1  0     0  0
  5 18  1  0     0  0
  6  9  1  0     0  0
  6 10  1  0     0  0
  6 19  1  0     0  0
  7  8  1  0     0  0
  7  9  2  0     0  0
  8 10  2  0     0  0
  9 20  1  0     0  0
 10 21  1  0     0  0
 11 13  2  0     0  0
 11 14  1  0     0  0
 11 19  1  0     0  0
 12 15  2  0     0  0
 12 16  1  0     0  0
 12 22  1  0     0  0
 13 15  1  0     0  0
 14 16  2  0     0  0
 17 21  1  0     0  0
 18 22  1  0     0  0
 20 23  1  0     0  0
 23 24  1  0     0  0
 24 25  1  0     0  0
M  END
> <standard_type>
pIC50

> <# Confs.>
25

> <canonical_smiles>
ClC(N=C1CCCC)=C(CC(O)=O)N1CC2=CC=C(CC(O)=O)C=C2

> <standard_relation>
=

> <Publication_ID>
nan

> <predicted_activity_value>
5.045757490560675

> <actual_activity_value>
4.886056647693163

> <Compound>
22

> <standard_units>
nM

> hash
15933815746296400870

$$$$
22_
XXILIB    08252103443D 0   0.00000     0.00000

 25 26  0     1  0            999 V2000
   -3.5514    0.0514   -1.4977 Cl  0  0  0  0  0  1           0  0  0
    0.1068   -2.3360   -2.3301 O   0  0  0  0  0  2           0  0  0
    3.2420    6.4690   -2.1158 O   0  0  0  0  0  2           0  0  0
   -0.3822   -1.4747   -4.3722 O   0  0  0  0  0  2           0  0  0
    1.8027    6.9435   -0.4263 O   0  0  0  0  0  2           0  0  0
    0.0000   -0.0000    0.0000 N   0  0  0  0  0  3           0  0  0
   -2.0876    0.0134    0.7607 N   0  0  0  0  0  3           0  0  0
   -2.0963    0.0280   -0.6092 C   0  0  0  0  0  4           0  0  0
   -0.8178    0.0000    1.1140 C   0  0  0  0  0  4           0  0  0
   -0.8109    0.0232   -1.1184 C   0  0  0  0  0  4           0  0  0
    1.9916    1.3968    0.0000 C   0  0  0  0  0  4           0  0  0
    3.0397    4.0154    0.0308 C   0  0  0  0  0  4           0  0  0
    3.0442    1.7534   -0.8526 C   0  0  0  0  0  4           0  0  0
    1.4704    2.3624    0.8702 C   0  0  0  0  0  4           0  0  0
    3.5591    3.0517   -0.8419 C   0  0  0  0  0  4           0  0  0
    1.9856    3.6609    0.8815 C   0  0  0  0  0  4           0  0  0
   -0.1676   -1.3736   -3.0367 C   0  0  0  0  0  4           0  0  0
    2.8852    6.3189   -0.9535 C   0  0  0  0  0  4           0  0  0
    1.4502   -0.0000    0.0000 C   0  0  0  0  0  4           0  0  0
   -0.3354   -0.0151    2.5200 C   0  0  0  0  0  4           0  0  0
   -0.3220    0.0302   -2.5203 C   0  0  0  0  0  4           0  0  0
    3.5797    5.4160    0.0280 C   0  0  0  0  0  4           0  0  0
   -1.1006   -1.0116    3.3856 C   0  0  0  0  0  4           0  0  0
   -0.6130   -1.0352    4.8321 C   0  0  0  0  0  4           0  0  0
   -1.3740   -2.0280    5.6983 C   0  0  0  0  0  4           0  0  0
  1  8  1  0     0  0
  2 17  2  0     0  0
  3 18  2  0     0  0
  4 17  1  0     0  0
  5 18  1  0     0  0
  6  9  1  0     0  0
  6 10  1  0     0  0
  6 19  1  0     0  0
  7  8  1  0     0  0
  7  9  2  0     0  0
  8 10  2  0     0  0
  9 20  1  0     0  0
 10 21  1  0     0  0
 11 13  2  0     0  0
 11 14  1  0     0  0
 11 19  1  0     0  0
 12 15  2  0     0  0
 12 16  1  0     0  0
 12 22  1  0     0  0
 13 15  1  0     0  0
 14 16  2  0     0  0
 17 21  1  0     0  0
 18 22  1  0     0  0
 20 23  1  0     0  0
 23 24  1  0     0  0
 24 25  1  0     0  0
M  END
> <standard_type>
pIC50

> <# Confs.>
25

> <canonical_smiles>
ClC(N=C1CCCC)=C(CC(O)=O)N1CC2=CC=C(CC(O)=O)C=C2

> <standard_relation>
=

> <Publication_ID>
nan

> <predicted_activity_value>
5.045757490560675

> <actual_activity_value>
4.886056647693163

> <Compound>
22

> <standard_units>
nM

> hash
15933815746296400870

$$$$
24_
XXILIB    08252103443D 0   0.00000     0.00000

 22 23  0     1  0            999 V2000
   -3.5582    0.0264   -1.4826 Cl  0  0  0  0  0  1           0  0  0
    4.5589   -5.6922    0.5148 O   0  0  0  0  0  2           0  0  0
    2.6816   -6.2877   -0.6085 O   0  0  0  0  0  2           0  0  0
   -0.2061   -1.3453   -2.9298 O   0  0  0  0  0  2           0  0  0
   -0.0000    0.0000    0.0000 N   0  0  0  0  0  3           0  0  0
   -2.0853    0.0096    0.7678 N   0  0  0  0  0  3           0  0  0
   -2.0987    0.0167   -0.6018 C   0  0  0  0  0  4           0  0  0
   -0.8145    0.0000    1.1166 C   0  0  0  0  0  4           0  0  0
   -0.8152    0.0106   -1.1152 C   0  0  0  0  0  4           0  0  0
    2.9772   -4.0055    0.0002 C   0  0  0  0  0  4           0  0  0
    1.9914   -1.3968    0.0000 C   0  0  0  0  0  4           0  0  0
    2.7418   -3.3643    1.2151 C   0  0  0  0  0  4           0  0  0
    2.7162   -3.3740   -1.2147 C   0  0  0  0  0  4           0  0  0
    2.2484   -2.0595    1.2106 C   0  0  0  0  0  4           0  0  0
    2.2233   -2.0691   -1.2104 C   0  0  0  0  0  4           0  0  0
    3.4918   -5.3901    0.0005 C   0  0  0  0  0  4           0  0  0
   -0.3339    0.0073   -2.5132 C   0  0  0  0  0  4           0  0  0
    1.4498   -0.0000    0.0000 C   0  0  0  0  0  4           0  0  0
   -0.3269   -0.0147    2.5229 C   0  0  0  0  0  4           0  0  0
   -1.0701    0.9841    3.4043 C   0  0  0  0  0  4           0  0  0
   -0.9476    2.4382    2.9470 C   0  0  0  0  0  4           0  0  0
   -1.7090    3.3805    3.8658 C   0  0  0  0  0  4           0  0  0
  1  7  1  0     0  0
  2 16  2  0     0  0
  3 16  1  0     0  0
  4 17  1  0     0  0
  5  8  1  0     0  0
  5  9  1  0     0  0
  5 18  1  0     0  0
  6  7  1  0     0  0
  6  8  2  0     0  0
  7  9  2  0     0  0
  8 19  1  0     0  0
  9 17  1  0     0  0
 10 12  2  0     0  0
 10 13  1  0     0  0
 10 16  1  0     0  0
 11 14  2  0     0  0
 11 15  1  0     0  0
 11 18  1  0     0  0
 12 14  1  0     0  0
 13 15  2  0     0  0
 19 20  1  0     0  0
 20 21  1  0     0  0
 21 22  1  0     0  0
M  END
> <standard_type>
pIC50

> <# Confs.>
25

> <canonical_smiles>
ClC(N=C1CCCC)=C(CO)N1CC2=CC=C(C(O)=O)C=C2

> <standard_relation>
=

> <Publication_ID>
nan

> <predicted_activity_value>
5.045757490560675

> <actual_activity_value>
4.552841968657781

> <Compound>
24

> <standard_units>
nM

> hash
15330608199569978610

$$$$
24_
XXILIB    08252103443D 0   0.00000     0.00000

 22 23  0     1  0            999 V2000
   -3.5582    0.0264   -1.4826 Cl  0  0  0  0  0  1           0  0  0
    4.5589   -5.6922    0.5148 O   0  0  0  0  0  2           0  0  0
    2.6816   -6.2877   -0.6085 O   0  0  0  0  0  2           0  0  0
   -0.2061   -1.3453   -2.9298 O   0  0  0  0  0  2           0  0  0
   -0.0000    0.0000    0.0000 N   0  0  0  0  0  3           0  0  0
   -2.0853    0.0096    0.7678 N   0  0  0  0  0  3           0  0  0
   -2.0987    0.0167   -0.6018 C   0  0  0  0  0  4           0  0  0
   -0.8145    0.0000    1.1166 C   0  0  0  0  0  4           0  0  0
   -0.8152    0.0106   -1.1152 C   0  0  0  0  0  4           0  0  0
    2.9772   -4.0055    0.0002 C   0  0  0  0  0  4           0  0  0
    1.9914   -1.3968    0.0000 C   0  0  0  0  0  4           0  0  0
    2.7418   -3.3643    1.2151 C   0  0  0  0  0  4           0  0  0
    2.7162   -3.3740   -1.2147 C   0  0  0  0  0  4           0  0  0
    2.2484   -2.0595    1.2106 C   0  0  0  0  0  4           0  0  0
    2.2233   -2.0691   -1.2104 C   0  0  0  0  0  4           0  0  0
    3.4918   -5.3901    0.0005 C   0  0  0  0  0  4           0  0  0
   -0.3339    0.0073   -2.5132 C   0  0  0  0  0  4           0  0  0
    1.4498   -0.0000    0.0000 C   0  0  0  0  0  4           0  0  0
   -0.3269   -0.0147    2.5229 C   0  0  0  0  0  4           0  0  0
   -1.0701    0.9841    3.4043 C   0  0  0  0  0  4           0  0  0
   -0.6035    1.0057    4.8605 C   0  0  0  0  0  4           0  0  0
   -1.3822    2.0197    5.6833 C   0  0  0  0  0  4           0  0  0
  1  7  1  0     0  0
  2 16  2  0     0  0
  3 16  1  0     0  0
  4 17  1  0     0  0
  5  8  1  0     0  0
  5  9  1  0     0  0
  5 18  1  0     0  0
  6  7  1  0     0  0
  6  8  2  0     0  0
  7  9  2  0     0  0
  8 19  1  0     0  0
  9 17  1  0     0  0
 10 12  2  0     0  0
 10 13  1  0     0  0
 10 16  1  0     0  0
 11 14  2  0     0  0
 11 15  1  0     0  0
 11 18  1  0     0  0
 12 14  1  0     0  0
 13 15  2  0     0  0
 19 20  1  0     0  0
 20 21  1  0     0  0
 21 22  1  0     0  0
M  END
> <standard_type>
pIC50

> <# Confs.>
25

> <canonical_smiles>
ClC(N=C1CCCC)=C(CO)N1CC2=CC=C(C(O)=O)C=C2

> <standard_relation>
=

> <Publication_ID>
nan

> <predicted_activity_value>
5.045757490560675

> <actual_activity_value>
4.552841968657781

> <Compound>
24

> <standard_units>
nM

> hash
15330608199569978610

$$$$
24_
XXILIB    08252103443D 0   0.00000     0.00000

 22 23  0     1  0            999 V2000
   -3.5582    0.0264   -1.4826 Cl  0  0  0  0  0  1           0  0  0
    4.2494    5.7850   -0.9470 O   0  0  0  0  0  2           0  0  0
    3.1602    6.1346    1.0105 O   0  0  0  0  0  2           0  0  0
   -0.2061   -1.3453   -2.9298 O   0  0  0  0  0  2           0  0  0
    0.0000    0.0000   -0.0000 N   0  0  0  0  0  3           0  0  0
   -2.0853    0.0096    0.7678 N   0  0  0  0  0  3           0  0  0
   -2.0987    0.0167   -0.6018 C   0  0  0  0  0  4           0  0  0
   -0.8145    0.0000    1.1166 C   0  0  0  0  0  4           0  0  0
   -0.8152    0.0106   -1.1152 C   0  0  0  0  0  4           0  0  0
    2.9999    3.9967   -0.0241 C   0  0  0  0  0  4           0  0  0
    1.9914    1.3968    0.0000 C   0  0  0  0  0  4           0  0  0
    3.8856    2.9207   -0.0118 C   0  0  0  0  0  4           0  0  0
    1.6202    3.7991   -0.0391 C   0  0  0  0  0  4           0  0  0
    3.3771    1.6218    0.0000 C   0  0  0  0  0  4           0  0  0
    1.1198    2.4970   -0.0269 C   0  0  0  0  0  4           0  0  0
    3.5341    5.3737   -0.0450 C   0  0  0  0  0  4           0  0  0
   -0.3339    0.0073   -2.5132 C   0  0  0  0  0  4           0  0  0
    1.4498   -0.0000   -0.0000 C   0  0  0  0  0  4           0  0  0
   -0.3269   -0.0147    2.5229 C   0  0  0  0  0  4           0  0  0
   -0.1508   -1.4313    3.0603 C   0  0  0  0  0  4           0  0  0
    0.3493   -1.4979    4.5040 C   0  0  0  0  0  4           0  0  0
    0.5032   -2.9344    4.9779 C   0  0  0  0  0  4           0  0  0
  1  7  1  0     0  0
  2 16  2  0     0  0
  3 16  1  0     0  0
  4 17  1  0     0  0
  5  8  1  0     0  0
  5  9  1  0     0  0
  5 18  1  0     0  0
  6  7  1  0     0  0
  6  8  2  0     0  0
  7  9  2  0     0  0
  8 19  1  0     0  0
  9 17  1  0     0  0
 10 12  2  0     0  0
 10 13  1  0     0  0
 10 16  1  0     0  0
 11 14  2  0     0  0
 11 15  1  0     0  0
 11 18  1  0     0  0
 12 14  1  0     0  0
 13 15  2  0     0  0
 19 20  1  0     0  0
 20 21  1  0     0  0
 21 22  1  0     0  0
M  END
> <standard_type>
pIC50

> <# Confs.>
25

> <canonical_smiles>
ClC(N=C1CCCC)=C(CO)N1CC2=CC=C(C(O)=O)C=C2

> <standard_relation>
=

> <Publication_ID>
nan

> <predicted_activity_value>
5.045757490560675

> <actual_activity_value>
4.552841968657781

> <Compound>
24

> <standard_units>
nM

> hash
15330608199569978610

$$$$
24_
XXILIB    08252103443D 0   0.00000     0.00000

 22 23  0     1  0            999 V2000
   -3.5582    0.0264   -1.4826 Cl  0  0  0  0  0  1           0  0  0
    4.2550    5.8100    0.8407 O   0  0  0  0  0  2           0  0  0
    3.1630    6.1011   -1.1248 O   0  0  0  0  0  2           0  0  0
   -0.2061   -1.3453   -2.9298 O   0  0  0  0  0  2           0  0  0
    0.0000    0.0000   -0.0000 N   0  0  0  0  0  3           0  0  0
   -2.0853    0.0096    0.7678 N   0  0  0  0  0  3           0  0  0
   -2.0987    0.0167   -0.6018 C   0  0  0  0  0  4           0  0  0
   -0.8145    0.0000    1.1166 C   0  0  0  0  0  4           0  0  0
   -0.8152    0.0106   -1.1152 C   0  0  0  0  0  4           0  0  0
    2.9999    3.9967   -0.0241 C   0  0  0  0  0  4           0  0  0
    1.9914    1.3968    0.0000 C   0  0  0  0  0  4           0  0  0
    3.8856    2.9207   -0.0118 C   0  0  0  0  0  4           0  0  0
    1.6202    3.7991   -0.0391 C   0  0  0  0  0  4           0  0  0
    3.3771    1.6218    0.0000 C   0  0  0  0  0  4           0  0  0
    1.1198    2.4970   -0.0269 C   0  0  0  0  0  4           0  0  0
    3.5341    5.3737   -0.0450 C   0  0  0  0  0  4           0  0  0
   -0.3339    0.0073   -2.5132 C   0  0  0  0  0  4           0  0  0
    1.4498   -0.0000   -0.0000 C   0  0  0  0  0  4           0  0  0
   -0.3269   -0.0147    2.5229 C   0  0  0  0  0  4           0  0  0
   -0.1508   -1.4313    3.0603 C   0  0  0  0  0  4           0  0  0
    0.3493   -1.4979    4.5040 C   0  0  0  0  0  4           0  0  0
    0.5032   -2.9344    4.9779 C   0  0  0  0  0  4           0  0  0
  1  7  1  0     0  0
  2 16  2  0     0  0
  3 16  1  0     0  0
  4 17  1  0     0  0
  5  8  1  0     0  0
  5  9  1  0     0  0
  5 18  1  0     0  0
  6  7  1  0     0  0
  6  8  2  0     0  0
  7  9  2  0     0  0
  8 19  1  0     0  0
  9 17  1  0     0  0
 10 12  2  0     0  0
 10 13  1  0     0  0
 10 16  1  0     0  0
 11 14  2  0     0  0
 11 15  1  0     0  0
 11 18  1  0     0  0
 12 14  1  0     0  0
 13 15  2  0     0  0
 19 20  1  0     0  0
 20 21  1  0     0  0
 21 22  1  0     0  0
M  END
> <standard_type>
pIC50

> <# Confs.>
25

> <canonical_smiles>
ClC(N=C1CCCC)=C(CO)N1CC2=CC=C(C(O)=O)C=C2

> <standard_relation>
=

> <Publication_ID>
nan

> <predicted_activity_value>
5.045757490560675

> <actual_activity_value>
4.552841968657781

> <Compound>
24

> <standard_units>
nM

> hash
15330608199569978610

$$$$
24_
XXILIB    08252103443D 0   0.00000     0.00000

 22 23  0     1  0            999 V2000
   -3.5582    0.0264   -1.4826 Cl  0  0  0  0  0  1           0  0  0
    4.2494    5.7850   -0.9470 O   0  0  0  0  0  2           0  0  0
    3.1602    6.1346    1.0105 O   0  0  0  0  0  2           0  0  0
   -0.2061   -1.3453   -2.9298 O   0  0  0  0  0  2           0  0  0
    0.0000    0.0000   -0.0000 N   0  0  0  0  0  3           0  0  0
   -2.0853    0.0096    0.7678 N   0  0  0  0  0  3           0  0  0
   -2.0987    0.0167   -0.6018 C   0  0  0  0  0  4           0  0  0
   -0.8145    0.0000    1.1166 C   0  0  0  0  0  4           0  0  0
   -0.8152    0.0106   -1.1152 C   0  0  0  0  0  4           0  0  0
    2.9999    3.9967   -0.0241 C   0  0  0  0  0  4           0  0  0
    1.9914    1.3968    0.0000 C   0  0  0  0  0  4           0  0  0
    3.8856    2.9207   -0.0118 C   0  0  0  0  0  4           0  0  0
    1.6202    3.7991   -0.0391 C   0  0  0  0  0  4           0  0  0
    3.3771    1.6218    0.0000 C   0  0  0  0  0  4           0  0  0
    1.1198    2.4970   -0.0269 C   0  0  0  0  0  4           0  0  0
    3.5341    5.3737   -0.0450 C   0  0  0  0  0  4           0  0  0
   -0.3339    0.0073   -2.5132 C   0  0  0  0  0  4           0  0  0
    1.4498   -0.0000   -0.0000 C   0  0  0  0  0  4           0  0  0
   -0.3269   -0.0147    2.5229 C   0  0  0  0  0  4           0  0  0
   -0.1508   -1.4313    3.0603 C   0  0  0  0  0  4           0  0  0
   -1.4329   -2.2649    3.0662 C   0  0  0  0  0  4           0  0  0
   -1.1896   -3.6630    3.6122 C   0  0  0  0  0  4           0  0  0
  1  7  1  0     0  0
  2 16  2  0     0  0
  3 16  1  0     0  0
  4 17  1  0     0  0
  5  8  1  0     0  0
  5  9  1  0     0  0
  5 18  1  0     0  0
  6  7  1  0     0  0
  6  8  2  0     0  0
  7  9  2  0     0  0
  8 19  1  0     0  0
  9 17  1  0     0  0
 10 12  2  0     0  0
 10 13  1  0     0  0
 10 16  1  0     0  0
 11 14  2  0     0  0
 11 15  1  0     0  0
 11 18  1  0     0  0
 12 14  1  0     0  0
 13 15  2  0     0  0
 19 20  1  0     0  0
 20 21  1  0     0  0
 21 22  1  0     0  0
M  END
> <standard_type>
pIC50

> <# Confs.>
25

> <canonical_smiles>
ClC(N=C1CCCC)=C(CO)N1CC2=CC=C(C(O)=O)C=C2

> <standard_relation>
=

> <Publication_ID>
nan

> <predicted_activity_value>
5.045757490560675

> <actual_activity_value>
4.552841968657781

> <Compound>
24

> <standard_units>
nM

> hash
15330608199569978610

$$$$
24_
XXILIB    08252103443D 0   0.00000     0.00000

 22 23  0     1  0            999 V2000
   -3.5582    0.0264   -1.4826 Cl  0  0  0  0  0  1           0  0  0
    4.2550    5.8100    0.8407 O   0  0  0  0  0  2           0  0  0
    3.1630    6.1011   -1.1248 O   0  0  0  0  0  2           0  0  0
   -0.2061   -1.3453   -2.9298 O   0  0  0  0  0  2           0  0  0
    0.0000    0.0000   -0.0000 N   0  0  0  0  0  3           0  0  0
   -2.0853    0.0096    0.7678 N   0  0  0  0  0  3           0  0  0
   -2.0987    0.0167   -0.6018 C   0  0  0  0  0  4           0  0  0
   -0.8145    0.0000    1.1166 C   0  0  0  0  0  4           0  0  0
   -0.8152    0.0106   -1.1152 C   0  0  0  0  0  4           0  0  0
    2.9999    3.9967   -0.0241 C   0  0  0  0  0  4           0  0  0
    1.9914    1.3968    0.0000 C   0  0  0  0  0  4           0  0  0
    3.8856    2.9207   -0.0118 C   0  0  0  0  0  4           0  0  0
    1.6202    3.7991   -0.0391 C   0  0  0  0  0  4           0  0  0
    3.3771    1.6218    0.0000 C   0  0  0  0  0  4           0  0  0
    1.1198    2.4970   -0.0269 C   0  0  0  0  0  4           0  0  0
    3.5341    5.3737   -0.0450 C   0  0  0  0  0  4           0  0  0
   -0.3339    0.0073   -2.5132 C   0  0  0  0  0  4           0  0  0
    1.4498   -0.0000   -0.0000 C   0  0  0  0  0  4           0  0  0
   -0.3269   -0.0147    2.5229 C   0  0  0  0  0  4           0  0  0
   -0.1508   -1.4313    3.0603 C   0  0  0  0  0  4           0  0  0
   -1.4329   -2.2649    3.0662 C   0  0  0  0  0  4           0  0  0
   -1.1896   -3.6630    3.6122 C   0  0  0  0  0  4           0  0  0
  1  7  1  0     0  0
  2 16  2  0     0  0
  3 16  1  0     0  0
  4 17  1  0     0  0
  5  8  1  0     0  0
  5  9  1  0     0  0
  5 18  1  0     0  0
  6  7  1  0     0  0
  6  8  2  0     0  0
  7  9  2  0     0  0
  8 19  1  0     0  0
  9 17  1  0     0  0
 10 12  2  0     0  0
 10 13  1  0     0  0
 10 16  1  0     0  0
 11 14  2  0     0  0
 11 15  1  0     0  0
 11 18  1  0     0  0
 12 14  1  0     0  0
 13 15  2  0     0  0
 19 20  1  0     0  0
 20 21  1  0     0  0
 21 22  1  0     0  0
M  END
> <standard_type>
pIC50

> <# Confs.>
25

> <canonical_smiles>
ClC(N=C1CCCC)=C(CO)N1CC2=CC=C(C(O)=O)C=C2

> <standard_relation>
=

> <Publication_ID>
nan

> <predicted_activity_value>
5.045757490560675

> <actual_activity_value>
4.552841968657781

> <Compound>
24

> <standard_units>
nM

> hash
15330608199569978610

$$$$
24_
XXILIB    08252103443D 0   0.00000     0.00000

 22 23  0     1  0            999 V2000
   -3.5582    0.0264   -1.4826 Cl  0  0  0  0  0  1           0  0  0
    4.5589   -5.6922    0.5148 O   0  0  0  0  0  2           0  0  0
    2.6816   -6.2877   -0.6085 O   0  0  0  0  0  2           0  0  0
   -0.2061   -1.3453   -2.9298 O   0  0  0  0  0  2           0  0  0
    0.0000    0.0000    0.0000 N   0  0  0  0  0  3           0  0  0
   -2.0853    0.0096    0.7678 N   0  0  0  0  0  3           0  0  0
   -2.0987    0.0167   -0.6018 C   0  0  0  0  0  4           0  0  0
   -0.8145    0.0000    1.1166 C   0  0  0  0  0  4           0  0  0
   -0.8152    0.0106   -1.1152 C   0  0  0  0  0  4           0  0  0
    2.9772   -4.0055    0.0002 C   0  0  0  0  0  4           0  0  0
    1.9914   -1.3968    0.0000 C   0  0  0  0  0  4           0  0  0
    2.7418   -3.3643    1.2151 C   0  0  0  0  0  4           0  0  0
    2.7162   -3.3740   -1.2147 C   0  0  0  0  0  4           0  0  0
    2.2484   -2.0595    1.2106 C   0  0  0  0  0  4           0  0  0
    2.2233   -2.0691   -1.2104 C   0  0  0  0  0  4           0  0  0
    3.4918   -5.3901    0.0005 C   0  0  0  0  0  4           0  0  0
   -0.3339    0.0073   -2.5132 C   0  0  0  0  0  4           0  0  0
    1.4498   -0.0000    0.0000 C   0  0  0  0  0  4           0  0  0
   -0.3269   -0.0147    2.5229 C   0  0  0  0  0  4           0  0  0
   -1.0894   -1.0112    3.3901 C   0  0  0  0  0  4           0  0  0
   -0.6236   -1.0625    4.8458 C   0  0  0  0  0  4           0  0  0
   -1.4219   -2.0728    5.6543 C   0  0  0  0  0  4           0  0  0
  1  7  1  0     0  0
  2 16  2  0     0  0
  3 16  1  0     0  0
  4 17  1  0     0  0
  5  8  1  0     0  0
  5  9  1  0     0  0
  5 18  1  0     0  0
  6  7  1  0     0  0
  6  8  2  0     0  0
  7  9  2  0     0  0
  8 19  1  0     0  0
  9 17  1  0     0  0
 10 12  2  0     0  0
 10 13  1  0     0  0
 10 16  1  0     0  0
 11 14  2  0     0  0
 11 15  1  0     0  0
 11 18  1  0     0  0
 12 14  1  0     0  0
 13 15  2  0     0  0
 19 20  1  0     0  0
 20 21  1  0     0  0
 21 22  1  0     0  0
M  END
> <standard_type>
pIC50

> <# Confs.>
25

> <canonical_smiles>
ClC(N=C1CCCC)=C(CO)N1CC2=CC=C(C(O)=O)C=C2

> <standard_relation>
=

> <Publication_ID>
nan

> <predicted_activity_value>
5.045757490560675

> <actual_activity_value>
4.552841968657781

> <Compound>
24

> <standard_units>
nM

> hash
15330608199569978610

$$$$
24_
XXILIB    08252103443D 0   0.00000     0.00000

 22 23  0     1  0            999 V2000
   -3.5582    0.0264   -1.4826 Cl  0  0  0  0  0  1           0  0  0
    4.5589    5.6922   -0.5148 O   0  0  0  0  0  2           0  0  0
    2.6816    6.2877    0.6085 O   0  0  0  0  0  2           0  0  0
    0.7020   -0.9598   -2.6181 O   0  0  0  0  0  2           0  0  0
    0.0000    0.0000    0.0000 N   0  0  0  0  0  3           0  0  0
   -2.0853    0.0096    0.7678 N   0  0  0  0  0  3           0  0  0
   -2.0987    0.0167   -0.6018 C   0  0  0  0  0  4           0  0  0
   -0.8145    0.0000    1.1166 C   0  0  0  0  0  4           0  0  0
   -0.8152    0.0106   -1.1152 C   0  0  0  0  0  4           0  0  0
    2.9772    4.0055   -0.0002 C   0  0  0  0  0  4           0  0  0
    1.9914    1.3968    0.0000 C   0  0  0  0  0  4           0  0  0
    2.7418    3.3643   -1.2151 C   0  0  0  0  0  4           0  0  0
    2.7162    3.3740    1.2147 C   0  0  0  0  0  4           0  0  0
    2.2484    2.0595   -1.2106 C   0  0  0  0  0  4           0  0  0
    2.2233    2.0691    1.2104 C   0  0  0  0  0  4           0  0  0
    3.4918    5.3901   -0.0005 C   0  0  0  0  0  4           0  0  0
   -0.3339    0.0073   -2.5132 C   0  0  0  0  0  4           0  0  0
    1.4498    0.0000   -0.0000 C   0  0  0  0  0  4           0  0  0
   -0.3269   -0.0147    2.5229 C   0  0  0  0  0  4           0  0  0
   -1.0894   -1.0112    3.3901 C   0  0  0  0  0  4           0  0  0
   -0.9951   -2.4609    2.9124 C   0  0  0  0  0  4           0  0  0
   -1.7748   -3.4011    3.8178 C   0  0  0  0  0  4           0  0  0
  1  7  1  0     0  0
  2 16  2  0     0  0
  3 16  1  0     0  0
  4 17  1  0     0  0
  5  8  1  0     0  0
  5  9  1  0     0  0
  5 18  1  0     0  0
  6  7  1  0     0  0
  6  8  2  0     0  0
  7  9  2  0     0  0
  8 19  1  0     0  0
  9 17  1  0     0  0
 10 12  2  0     0  0
 10 13  1  0     0  0
 10 16  1  0     0  0
 11 14  2  0     0  0
 11 15  1  0     0  0
 11 18  1  0     0  0
 12 14  1  0     0  0
 13 15  2  0     0  0
 19 20  1  0     0  0
 20 21  1  0     0  0
 21 22  1  0     0  0
M  END
> <standard_type>
pIC50

> <# Confs.>
25

> <canonical_smiles>
ClC(N=C1CCCC)=C(CO)N1CC2=CC=C(C(O)=O)C=C2

> <standard_relation>
=

> <Publication_ID>
nan

> <predicted_activity_value>
5.045757490560675

> <actual_activity_value>
4.552841968657781

> <Compound>
24

> <standard_units>
nM

> hash
15330608199569978610

$$$$
24_
XXILIB    08252103443D 0   0.00000     0.00000

 22 23  0     1  0            999 V2000
   -3.5582    0.0264   -1.4826 Cl  0  0  0  0  0  1           0  0  0
    2.8829   -6.3150    0.5186 O   0  0  0  0  0  2           0  0  0
    4.6834   -5.5439   -0.6233 O   0  0  0  0  0  2           0  0  0
   -0.2061   -1.3453   -2.9298 O   0  0  0  0  0  2           0  0  0
   -0.0000    0.0000    0.0000 N   0  0  0  0  0  3           0  0  0
   -2.0853    0.0096    0.7678 N   0  0  0  0  0  3           0  0  0
   -2.0987    0.0167   -0.6018 C   0  0  0  0  0  4           0  0  0
   -0.8145    0.0000    1.1166 C   0  0  0  0  0  4           0  0  0
   -0.8152    0.0106   -1.1152 C   0  0  0  0  0  4           0  0  0
    2.9772   -4.0055    0.0002 C   0  0  0  0  0  4           0  0  0
    1.9914   -1.3968    0.0000 C   0  0  0  0  0  4           0  0  0
    2.7418   -3.3643    1.2151 C   0  0  0  0  0  4           0  0  0
    2.7162   -3.3740   -1.2147 C   0  0  0  0  0  4           0  0  0
    2.2484   -2.0595    1.2106 C   0  0  0  0  0  4           0  0  0
    2.2233   -2.0691   -1.2104 C   0  0  0  0  0  4           0  0  0
    3.4918   -5.3901    0.0005 C   0  0  0  0  0  4           0  0  0
   -0.3339    0.0073   -2.5132 C   0  0  0  0  0  4           0  0  0
    1.4498   -0.0000    0.0000 C   0  0  0  0  0  4           0  0  0
   -0.3269   -0.0147    2.5229 C   0  0  0  0  0  4           0  0  0
   -1.0701    0.9841    3.4043 C   0  0  0  0  0  4           0  0  0
   -0.9476    2.4382    2.9470 C   0  0  0  0  0  4           0  0  0
   -1.7090    3.3805    3.8658 C   0  0  0  0  0  4           0  0  0
  1  7  1  0     0  0
  2 16  2  0     0  0
  3 16  1  0     0  0
  4 17  1  0     0  0
  5  8  1  0     0  0
  5  9  1  0     0  0
  5 18  1  0     0  0
  6  7  1  0     0  0
  6  8  2  0     0  0
  7  9  2  0     0  0
  8 19  1  0     0  0
  9 17  1  0     0  0
 10 12  2  0     0  0
 10 13  1  0     0  0
 10 16  1  0     0  0
 11 14  2  0     0  0
 11 15  1  0     0  0
 11 18  1  0     0  0
 12 14  1  0     0  0
 13 15  2  0     0  0
 19 20  1  0     0  0
 20 21  1  0     0  0
 21 22  1  0     0  0
M  END
> <standard_type>
pIC50

> <# Confs.>
25

> <canonical_smiles>
ClC(N=C1CCCC)=C(CO)N1CC2=CC=C(C(O)=O)C=C2

> <standard_relation>
=

> <Publication_ID>
nan

> <predicted_activity_value>
5.045757490560675

> <actual_activity_value>
4.552841968657781

> <Compound>
24

> <standard_units>
nM

> hash
15330608199569978610

$$$$
24_
XXILIB    08252103443D 0   0.00000     0.00000

 22 23  0     1  0            999 V2000
   -3.5582    0.0264   -1.4826 Cl  0  0  0  0  0  1           0  0  0
    4.5589    5.6922   -0.5148 O   0  0  0  0  0  2           0  0  0
    2.6816    6.2877    0.6085 O   0  0  0  0  0  2           0  0  0
    0.7020   -0.9598   -2.6181 O   0  0  0  0  0  2           0  0  0
    0.0000    0.0000    0.0000 N   0  0  0  0  0  3           0  0  0
   -2.0853    0.0096    0.7678 N   0  0  0  0  0  3           0  0  0
   -2.0987    0.0167   -0.6018 C   0  0  0  0  0  4           0  0  0
   -0.8145    0.0000    1.1166 C   0  0  0  0  0  4           0  0  0
   -0.8152    0.0106   -1.1152 C   0  0  0  0  0  4           0  0  0
    2.9772    4.0055   -0.0002 C   0  0  0  0  0  4           0  0  0
    1.9914    1.3968    0.0000 C   0  0  0  0  0  4           0  0  0
    2.7418    3.3643   -1.2151 C   0  0  0  0  0  4           0  0  0
    2.7162    3.3740    1.2147 C   0  0  0  0  0  4           0  0  0
    2.2484    2.0595   -1.2106 C   0  0  0  0  0  4           0  0  0
    2.2233    2.0691    1.2104 C   0  0  0  0  0  4           0  0  0
    3.4918    5.3901   -0.0005 C   0  0  0  0  0  4           0  0  0
   -0.3339    0.0073   -2.5132 C   0  0  0  0  0  4           0  0  0
    1.4498    0.0000   -0.0000 C   0  0  0  0  0  4           0  0  0
   -0.3269   -0.0147    2.5229 C   0  0  0  0  0  4           0  0  0
   -1.0894   -1.0112    3.3901 C   0  0  0  0  0  4           0  0  0
   -0.6236   -1.0625    4.8458 C   0  0  0  0  0  4           0  0  0
   -1.4219   -2.0728    5.6543 C   0  0  0  0  0  4           0  0  0
  1  7  1  0     0  0
  2 16  2  0     0  0
  3 16  1  0     0  0
  4 17  1  0     0  0
  5  8  1  0     0  0
  5  9  1  0     0  0
  5 18  1  0     0  0
  6  7  1  0     0  0
  6  8  2  0     0  0
  7  9  2  0     0  0
  8 19  1  0     0  0
  9 17  1  0     0  0
 10 12  2  0     0  0
 10 13  1  0     0  0
 10 16  1  0     0  0
 11 14  2  0     0  0
 11 15  1  0     0  0
 11 18  1  0     0  0
 12 14  1  0     0  0
 13 15  2  0     0  0
 19 20  1  0     0  0
 20 21  1  0     0  0
 21 22  1  0     0  0
M  END
> <standard_type>
pIC50

> <# Confs.>
25

> <canonical_smiles>
ClC(N=C1CCCC)=C(CO)N1CC2=CC=C(C(O)=O)C=C2

> <standard_relation>
=

> <Publication_ID>
nan

> <predicted_activity_value>
5.045757490560675

> <actual_activity_value>
4.552841968657781

> <Compound>
24

> <standard_units>
nM

> hash
15330608199569978610

$$$$
24_
XXILIB    08252103443D 0   0.00000     0.00000

 22 23  0     1  0            999 V2000
   -3.5582    0.0264   -1.4826 Cl  0  0  0  0  0  1           0  0  0
    4.5589   -5.6922    0.5148 O   0  0  0  0  0  2           0  0  0
    2.6816   -6.2877   -0.6085 O   0  0  0  0  0  2           0  0  0
   -0.2061   -1.3453   -2.9298 O   0  0  0  0  0  2           0  0  0
    0.0000    0.0000    0.0000 N   0  0  0  0  0  3           0  0  0
   -2.0853    0.0096    0.7678 N   0  0  0  0  0  3           0  0  0
   -2.0987    0.0167   -0.6018 C   0  0  0  0  0  4           0  0  0
   -0.8145    0.0000    1.1166 C   0  0  0  0  0  4           0  0  0
   -0.8152    0.0106   -1.1152 C   0  0  0  0  0  4           0  0  0
    2.9772   -4.0055    0.0002 C   0  0  0  0  0  4           0  0  0
    1.9914   -1.3968    0.0000 C   0  0  0  0  0  4           0  0  0
    2.7418   -3.3643    1.2151 C   0  0  0  0  0  4           0  0  0
    2.7162   -3.3740   -1.2147 C   0  0  0  0  0  4           0  0  0
    2.2484   -2.0595    1.2106 C   0  0  0  0  0  4           0  0  0
    2.2233   -2.0691   -1.2104 C   0  0  0  0  0  4           0  0  0
    3.4918   -5.3901    0.0005 C   0  0  0  0  0  4           0  0  0
   -0.3339    0.0073   -2.5132 C   0  0  0  0  0  4           0  0  0
    1.4498   -0.0000    0.0000 C   0  0  0  0  0  4           0  0  0
   -0.3269   -0.0147    2.5229 C   0  0  0  0  0  4           0  0  0
   -1.0894   -1.0112    3.3901 C   0  0  0  0  0  4           0  0  0
   -0.9951   -2.4609    2.9124 C   0  0  0  0  0  4           0  0  0
   -1.7748   -3.4011    3.8178 C   0  0  0  0  0  4           0  0  0
  1  7  1  0     0  0
  2 16  2  0     0  0
  3 16  1  0     0  0
  4 17  1  0     0  0
  5  8  1  0     0  0
  5  9  1  0     0  0
  5 18  1  0     0  0
  6  7  1  0     0  0
  6  8  2  0     0  0
  7  9  2  0     0  0
  8 19  1  0     0  0
  9 17  1  0     0  0
 10 12  2  0     0  0
 10 13  1  0     0  0
 10 16  1  0     0  0
 11 14  2  0     0  0
 11 15  1  0     0  0
 11 18  1  0     0  0
 12 14  1  0     0  0
 13 15  2  0     0  0
 19 20  1  0     0  0
 20 21  1  0     0  0
 21 22  1  0     0  0
M  END
> <standard_type>
pIC50

> <# Confs.>
25

> <canonical_smiles>
ClC(N=C1CCCC)=C(CO)N1CC2=CC=C(C(O)=O)C=C2

> <standard_relation>
=

> <Publication_ID>
nan

> <predicted_activity_value>
5.045757490560675

> <actual_activity_value>
4.552841968657781

> <Compound>
24

> <standard_units>
nM

> hash
15330608199569978610

$$$$
24_
XXILIB    08252103443D 0   0.00000     0.00000

 22 23  0     1  0            999 V2000
   -3.5582    0.0264   -1.4826 Cl  0  0  0  0  0  1           0  0  0
    2.8829   -6.3150    0.5186 O   0  0  0  0  0  2           0  0  0
    4.6834   -5.5439   -0.6233 O   0  0  0  0  0  2           0  0  0
   -0.2061   -1.3453   -2.9298 O   0  0  0  0  0  2           0  0  0
   -0.0000    0.0000    0.0000 N   0  0  0  0  0  3           0  0  0
   -2.0853    0.0096    0.7678 N   0  0  0  0  0  3           0  0  0
   -2.0987    0.0167   -0.6018 C   0  0  0  0  0  4           0  0  0
   -0.8145    0.0000    1.1166 C   0  0  0  0  0  4           0  0  0
   -0.8152    0.0106   -1.1152 C   0  0  0  0  0  4           0  0  0
    2.9772   -4.0055    0.0002 C   0  0  0  0  0  4           0  0  0
    1.9914   -1.3968    0.0000 C   0  0  0  0  0  4           0  0  0
    2.7418   -3.3643    1.2151 C   0  0  0  0  0  4           0  0  0
    2.7162   -3.3740   -1.2147 C   0  0  0  0  0  4           0  0  0
    2.2484   -2.0595    1.2106 C   0  0  0  0  0  4           0  0  0
    2.2233   -2.0691   -1.2104 C   0  0  0  0  0  4           0  0  0
    3.4918   -5.3901    0.0005 C   0  0  0  0  0  4           0  0  0
   -0.3339    0.0073   -2.5132 C   0  0  0  0  0  4           0  0  0
    1.4498   -0.0000    0.0000 C   0  0  0  0  0  4           0  0  0
   -0.3269   -0.0147    2.5229 C   0  0  0  0  0  4           0  0  0
   -1.0701    0.9841    3.4043 C   0  0  0  0  0  4           0  0  0
   -0.6035    1.0057    4.8605 C   0  0  0  0  0  4           0  0  0
   -1.3822    2.0197    5.6833 C   0  0  0  0  0  4           0  0  0
  1  7  1  0     0  0
  2 16  2  0     0  0
  3 16  1  0     0  0
  4 17  1  0     0  0
  5  8  1  0     0  0
  5  9  1  0     0  0
  5 18  1  0     0  0
  6  7  1  0     0  0
  6  8  2  0     0  0
  7  9  2  0     0  0
  8 19  1  0     0  0
  9 17  1  0     0  0
 10 12  2  0     0  0
 10 13  1  0     0  0
 10 16  1  0     0  0
 11 14  2  0     0  0
 11 15  1  0     0  0
 11 18  1  0     0  0
 12 14  1  0     0  0
 13 15  2  0     0  0
 19 20  1  0     0  0
 20 21  1  0     0  0
 21 22  1  0     0  0
M  END
> <standard_type>
pIC50

> <# Confs.>
25

> <canonical_smiles>
ClC(N=C1CCCC)=C(CO)N1CC2=CC=C(C(O)=O)C=C2

> <standard_relation>
=

> <Publication_ID>
nan

> <predicted_activity_value>
5.045757490560675

> <actual_activity_value>
4.552841968657781

> <Compound>
24

> <standard_units>
nM

> hash
15330608199569978610

$$$$
24_
XXILIB    08252103443D 0   0.00000     0.00000

 22 23  0     1  0            999 V2000
   -3.5582    0.0264   -1.4826 Cl  0  0  0  0  0  1           0  0  0
    4.2494    5.7850   -0.9470 O   0  0  0  0  0  2           0  0  0
    3.1602    6.1346    1.0105 O   0  0  0  0  0  2           0  0  0
   -0.2061   -1.3453   -2.9298 O   0  0  0  0  0  2           0  0  0
   -0.0000    0.0000    0.0000 N   0  0  0  0  0  3           0  0  0
   -2.0853    0.0096    0.7678 N   0  0  0  0  0  3           0  0  0
   -2.0987    0.0167   -0.6018 C   0  0  0  0  0  4           0  0  0
   -0.8145    0.0000    1.1166 C   0  0  0  0  0  4           0  0  0
   -0.8152    0.0106   -1.1152 C   0  0  0  0  0  4           0  0  0
    2.9999    3.9967   -0.0241 C   0  0  0  0  0  4           0  0  0
    1.9914    1.3968    0.0000 C   0  0  0  0  0  4           0  0  0
    3.8856    2.9207   -0.0118 C   0  0  0  0  0  4           0  0  0
    1.6202    3.7991   -0.0391 C   0  0  0  0  0  4           0  0  0
    3.3771    1.6218    0.0000 C   0  0  0  0  0  4           0  0  0
    1.1198    2.4970   -0.0269 C   0  0  0  0  0  4           0  0  0
    3.5341    5.3737   -0.0450 C   0  0  0  0  0  4           0  0  0
   -0.3339    0.0073   -2.5132 C   0  0  0  0  0  4           0  0  0
    1.4498   -0.0000   -0.0000 C   0  0  0  0  0  4           0  0  0
   -0.3269   -0.0147    2.5229 C   0  0  0  0  0  4           0  0  0
   -1.4702   -0.0107    3.5326 C   0  0  0  0  0  4           0  0  0
   -1.0182   -0.0255    4.9935 C   0  0  0  0  0  4           0  0  0
   -2.2029   -0.0207    5.9465 C   0  0  0  0  0  4           0  0  0
  1  7  1  0     0  0
  2 16  2  0     0  0
  3 16  1  0     0  0
  4 17  1  0     0  0
  5  8  1  0     0  0
  5  9  1  0     0  0
  5 18  1  0     0  0
  6  7  1  0     0  0
  6  8  2  0     0  0
  7  9  2  0     0  0
  8 19  1  0     0  0
  9 17  1  0     0  0
 10 12  2  0     0  0
 10 13  1  0     0  0
 10 16  1  0     0  0
 11 14  2  0     0  0
 11 15  1  0     0  0
 11 18  1  0     0  0
 12 14  1  0     0  0
 13 15  2  0     0  0
 19 20  1  0     0  0
 20 21  1  0     0  0
 21 22  1  0     0  0
M  END
> <standard_type>
pIC50

> <# Confs.>
25

> <canonical_smiles>
ClC(N=C1CCCC)=C(CO)N1CC2=CC=C(C(O)=O)C=C2

> <standard_relation>
=

> <Publication_ID>
nan

> <predicted_activity_value>
5.045757490560675

> <actual_activity_value>
4.552841968657781

> <Compound>
24

> <standard_units>
nM

> hash
15330608199569978610

$$$$
24_
XXILIB    08252103443D 0   0.00000     0.00000

 22 23  0     1  0            999 V2000
   -3.5582    0.0264   -1.4826 Cl  0  0  0  0  0  1           0  0  0
    4.2494    5.7850   -0.9470 O   0  0  0  0  0  2           0  0  0
    3.1602    6.1346    1.0105 O   0  0  0  0  0  2           0  0  0
   -0.2061   -1.3453   -2.9298 O   0  0  0  0  0  2           0  0  0
   -0.0000    0.0000    0.0000 N   0  0  0  0  0  3           0  0  0
   -2.0853    0.0096    0.7678 N   0  0  0  0  0  3           0  0  0
   -2.0987    0.0167   -0.6018 C   0  0  0  0  0  4           0  0  0
   -0.8145    0.0000    1.1166 C   0  0  0  0  0  4           0  0  0
   -0.8152    0.0106   -1.1152 C   0  0  0  0  0  4           0  0  0
    2.9999    3.9967   -0.0241 C   0  0  0  0  0  4           0  0  0
    1.9914    1.3968    0.0000 C   0  0  0  0  0  4           0  0  0
    3.8856    2.9207   -0.0118 C   0  0  0  0  0  4           0  0  0
    1.6202    3.7991   -0.0391 C   0  0  0  0  0  4           0  0  0
    3.3771    1.6218    0.0000 C   0  0  0  0  0  4           0  0  0
    1.1198    2.4970   -0.0269 C   0  0  0  0  0  4           0  0  0
    3.5341    5.3737   -0.0450 C   0  0  0  0  0  4           0  0  0
   -0.3339    0.0073   -2.5132 C   0  0  0  0  0  4           0  0  0
    1.4498   -0.0000   -0.0000 C   0  0  0  0  0  4           0  0  0
   -0.3269   -0.0147    2.5229 C   0  0  0  0  0  4           0  0  0
   -1.0701    0.9841    3.4043 C   0  0  0  0  0  4           0  0  0
   -0.9476    2.4382    2.9470 C   0  0  0  0  0  4           0  0  0
   -1.7090    3.3805    3.8658 C   0  0  0  0  0  4           0  0  0
  1  7  1  0     0  0
  2 16  2  0     0  0
  3 16  1  0     0  0
  4 17  1  0     0  0
  5  8  1  0     0  0
  5  9  1  0     0  0
  5 18  1  0     0  0
  6  7  1  0     0  0
  6  8  2  0     0  0
  7  9  2  0     0  0
  8 19  1  0     0  0
  9 17  1  0     0  0
 10 12  2  0     0  0
 10 13  1  0     0  0
 10 16  1  0     0  0
 11 14  2  0     0  0
 11 15  1  0     0  0
 11 18  1  0     0  0
 12 14  1  0     0  0
 13 15  2  0     0  0
 19 20  1  0     0  0
 20 21  1  0     0  0
 21 22  1  0     0  0
M  END
> <standard_type>
pIC50

> <# Confs.>
25

> <canonical_smiles>
ClC(N=C1CCCC)=C(CO)N1CC2=CC=C(C(O)=O)C=C2

> <standard_relation>
=

> <Publication_ID>
nan

> <predicted_activity_value>
5.045757490560675

> <actual_activity_value>
4.552841968657781

> <Compound>
24

> <standard_units>
nM

> hash
15330608199569978610

$$$$
24_
XXILIB    08252103443D 0   0.00000     0.00000

 22 23  0     1  0            999 V2000
   -3.5582    0.0264   -1.4826 Cl  0  0  0  0  0  1           0  0  0
    4.2550    5.8100    0.8407 O   0  0  0  0  0  2           0  0  0
    3.1630    6.1011   -1.1248 O   0  0  0  0  0  2           0  0  0
   -0.2061   -1.3453   -2.9298 O   0  0  0  0  0  2           0  0  0
   -0.0000    0.0000    0.0000 N   0  0  0  0  0  3           0  0  0
   -2.0853    0.0096    0.7678 N   0  0  0  0  0  3           0  0  0
   -2.0987    0.0167   -0.6018 C   0  0  0  0  0  4           0  0  0
   -0.8145    0.0000    1.1166 C   0  0  0  0  0  4           0  0  0
   -0.8152    0.0106   -1.1152 C   0  0  0  0  0  4           0  0  0
    2.9999    3.9967   -0.0241 C   0  0  0  0  0  4           0  0  0
    1.9914    1.3968    0.0000 C   0  0  0  0  0  4           0  0  0
    3.8856    2.9207   -0.0118 C   0  0  0  0  0  4           0  0  0
    1.6202    3.7991   -0.0391 C   0  0  0  0  0  4           0  0  0
    3.3771    1.6218    0.0000 C   0  0  0  0  0  4           0  0  0
    1.1198    2.4970   -0.0269 C   0  0  0  0  0  4           0  0  0
    3.5341    5.3737   -0.0450 C   0  0  0  0  0  4           0  0  0
   -0.3339    0.0073   -2.5132 C   0  0  0  0  0  4           0  0  0
    1.4498   -0.0000   -0.0000 C   0  0  0  0  0  4           0  0  0
   -0.3269   -0.0147    2.5229 C   0  0  0  0  0  4           0  0  0
   -1.4702   -0.0107    3.5326 C   0  0  0  0  0  4           0  0  0
   -1.0182   -0.0255    4.9935 C   0  0  0  0  0  4           0  0  0
   -2.2029   -0.0207    5.9465 C   0  0  0  0  0  4           0  0  0
  1  7  1  0     0  0
  2 16  2  0     0  0
  3 16  1  0     0  0
  4 17  1  0     0  0
  5  8  1  0     0  0
  5  9  1  0     0  0
  5 18  1  0     0  0
  6  7  1  0     0  0
  6  8  2  0     0  0
  7  9  2  0     0  0
  8 19  1  0     0  0
  9 17  1  0     0  0
 10 12  2  0     0  0
 10 13  1  0     0  0
 10 16  1  0     0  0
 11 14  2  0     0  0
 11 15  1  0     0  0
 11 18  1  0     0  0
 12 14  1  0     0  0
 13 15  2  0     0  0
 19 20  1  0     0  0
 20 21  1  0     0  0
 21 22  1  0     0  0
M  END
> <standard_type>
pIC50

> <# Confs.>
25

> <canonical_smiles>
ClC(N=C1CCCC)=C(CO)N1CC2=CC=C(C(O)=O)C=C2

> <standard_relation>
=

> <Publication_ID>
nan

> <predicted_activity_value>
5.045757490560675

> <actual_activity_value>
4.552841968657781

> <Compound>
24

> <standard_units>
nM

> hash
15330608199569978610

$$$$
24_
XXILIB    08252103443D 0   0.00000     0.00000

 22 23  0     1  0            999 V2000
   -3.5582    0.0264   -1.4826 Cl  0  0  0  0  0  1           0  0  0
    4.2550    5.8100    0.8407 O   0  0  0  0  0  2           0  0  0
    3.1630    6.1011   -1.1248 O   0  0  0  0  0  2           0  0  0
   -0.2061   -1.3453   -2.9298 O   0  0  0  0  0  2           0  0  0
   -0.0000    0.0000    0.0000 N   0  0  0  0  0  3           0  0  0
   -2.0853    0.0096    0.7678 N   0  0  0  0  0  3           0  0  0
   -2.0987    0.0167   -0.6018 C   0  0  0  0  0  4           0  0  0
   -0.8145    0.0000    1.1166 C   0  0  0  0  0  4           0  0  0
   -0.8152    0.0106   -1.1152 C   0  0  0  0  0  4           0  0  0
    2.9999    3.9967   -0.0241 C   0  0  0  0  0  4           0  0  0
    1.9914    1.3968    0.0000 C   0  0  0  0  0  4           0  0  0
    3.8856    2.9207   -0.0118 C   0  0  0  0  0  4           0  0  0
    1.6202    3.7991   -0.0391 C   0  0  0  0  0  4           0  0  0
    3.3771    1.6218    0.0000 C   0  0  0  0  0  4           0  0  0
    1.1198    2.4970   -0.0269 C   0  0  0  0  0  4           0  0  0
    3.5341    5.3737   -0.0450 C   0  0  0  0  0  4           0  0  0
   -0.3339    0.0073   -2.5132 C   0  0  0  0  0  4           0  0  0
    1.4498   -0.0000   -0.0000 C   0  0  0  0  0  4           0  0  0
   -0.3269   -0.0147    2.5229 C   0  0  0  0  0  4           0  0  0
   -1.0701    0.9841    3.4043 C   0  0  0  0  0  4           0  0  0
   -0.9476    2.4382    2.9470 C   0  0  0  0  0  4           0  0  0
   -1.7090    3.3805    3.8658 C   0  0  0  0  0  4           0  0  0
  1  7  1  0     0  0
  2 16  2  0     0  0
  3 16  1  0     0  0
  4 17  1  0     0  0
  5  8  1  0     0  0
  5  9  1  0     0  0
  5 18  1  0     0  0
  6  7  1  0     0  0
  6  8  2  0     0  0
  7  9  2  0     0  0
  8 19  1  0     0  0
  9 17  1  0     0  0
 10 12  2  0     0  0
 10 13  1  0     0  0
 10 16  1  0     0  0
 11 14  2  0     0  0
 11 15  1  0     0  0
 11 18  1  0     0  0
 12 14  1  0     0  0
 13 15  2  0     0  0
 19 20  1  0     0  0
 20 21  1  0     0  0
 21 22  1  0     0  0
M  END
> <standard_type>
pIC50

> <# Confs.>
25

> <canonical_smiles>
ClC(N=C1CCCC)=C(CO)N1CC2=CC=C(C(O)=O)C=C2

> <standard_relation>
=

> <Publication_ID>
nan

> <predicted_activity_value>
5.045757490560675

> <actual_activity_value>
4.552841968657781

> <Compound>
24

> <standard_units>
nM

> hash
15330608199569978610

$$$$
24_
XXILIB    08252103443D 0   0.00000     0.00000

 22 23  0     1  0            999 V2000
   -3.5582    0.0264   -1.4826 Cl  0  0  0  0  0  1           0  0  0
    4.2494   -5.7850    0.9470 O   0  0  0  0  0  2           0  0  0
    3.1602   -6.1346   -1.0105 O   0  0  0  0  0  2           0  0  0
   -0.2061   -1.3453   -2.9298 O   0  0  0  0  0  2           0  0  0
    0.0000    0.0000    0.0000 N   0  0  0  0  0  3           0  0  0
   -2.0853    0.0096    0.7678 N   0  0  0  0  0  3           0  0  0
   -2.0987    0.0167   -0.6018 C   0  0  0  0  0  4           0  0  0
   -0.8145   -0.0000    1.1166 C   0  0  0  0  0  4           0  0  0
   -0.8152    0.0106   -1.1152 C   0  0  0  0  0  4           0  0  0
    2.9999   -3.9967    0.0241 C   0  0  0  0  0  4           0  0  0
    1.9914   -1.3968    0.0000 C   0  0  0  0  0  4           0  0  0
    3.8856   -2.9207    0.0118 C   0  0  0  0  0  4           0  0  0
    1.6202   -3.7991    0.0391 C   0  0  0  0  0  4           0  0  0
    3.3771   -1.6218    0.0000 C   0  0  0  0  0  4           0  0  0
    1.1198   -2.4970    0.0269 C   0  0  0  0  0  4           0  0  0
    3.5341   -5.3737    0.0450 C   0  0  0  0  0  4           0  0  0
   -0.3339    0.0073   -2.5132 C   0  0  0  0  0  4           0  0  0
    1.4498    0.0000   -0.0000 C   0  0  0  0  0  4           0  0  0
   -0.3269   -0.0147    2.5229 C   0  0  0  0  0  4           0  0  0
   -0.1234    1.3905    3.0803 C   0  0  0  0  0  4           0  0  0
    0.3777    1.4269    4.5247 C   0  0  0  0  0  4           0  0  0
    0.5594    2.8533    5.0189 C   0  0  0  0  0  4           0  0  0
  1  7  1  0     0  0
  2 16  2  0     0  0
  3 16  1  0     0  0
  4 17  1  0     0  0
  5  8  1  0     0  0
  5  9  1  0     0  0
  5 18  1  0     0  0
  6  7  1  0     0  0
  6  8  2  0     0  0
  7  9  2  0     0  0
  8 19  1  0     0  0
  9 17  1  0     0  0
 10 12  2  0     0  0
 10 13  1  0     0  0
 10 16  1  0     0  0
 11 14  2  0     0  0
 11 15  1  0     0  0
 11 18  1  0     0  0
 12 14  1  0     0  0
 13 15  2  0     0  0
 19 20  1  0     0  0
 20 21  1  0     0  0
 21 22  1  0     0  0
M  END
> <standard_type>
pIC50

> <# Confs.>
25

> <canonical_smiles>
ClC(N=C1CCCC)=C(CO)N1CC2=CC=C(C(O)=O)C=C2

> <standard_relation>
=

> <Publication_ID>
nan

> <predicted_activity_value>
5.045757490560675

> <actual_activity_value>
4.552841968657781

> <Compound>
24

> <standard_units>
nM

> hash
15330608199569978610

$$$$
24_
XXILIB    08252103443D 0   0.00000     0.00000

 22 23  0     1  0            999 V2000
   -3.5582    0.0264   -1.4826 Cl  0  0  0  0  0  1           0  0  0
    2.8829    6.3150   -0.5186 O   0  0  0  0  0  2           0  0  0
    4.6834    5.5439    0.6233 O   0  0  0  0  0  2           0  0  0
    0.7020   -0.9598   -2.6181 O   0  0  0  0  0  2           0  0  0
    0.0000    0.0000    0.0000 N   0  0  0  0  0  3           0  0  0
   -2.0853    0.0096    0.7678 N   0  0  0  0  0  3           0  0  0
   -2.0987    0.0167   -0.6018 C   0  0  0  0  0  4           0  0  0
   -0.8145    0.0000    1.1166 C   0  0  0  0  0  4           0  0  0
   -0.8152    0.0106   -1.1152 C   0  0  0  0  0  4           0  0  0
    2.9772    4.0055   -0.0002 C   0  0  0  0  0  4           0  0  0
    1.9914    1.3968    0.0000 C   0  0  0  0  0  4           0  0  0
    2.7418    3.3643   -1.2151 C   0  0  0  0  0  4           0  0  0
    2.7162    3.3740    1.2147 C   0  0  0  0  0  4           0  0  0
    2.2484    2.0595   -1.2106 C   0  0  0  0  0  4           0  0  0
    2.2233    2.0691    1.2104 C   0  0  0  0  0  4           0  0  0
    3.4918    5.3901   -0.0005 C   0  0  0  0  0  4           0  0  0
   -0.3339    0.0073   -2.5132 C   0  0  0  0  0  4           0  0  0
    1.4498    0.0000   -0.0000 C   0  0  0  0  0  4           0  0  0
   -0.3269   -0.0147    2.5229 C   0  0  0  0  0  4           0  0  0
   -1.0894   -1.0112    3.3901 C   0  0  0  0  0  4           0  0  0
   -0.9951   -2.4609    2.9124 C   0  0  0  0  0  4           0  0  0
   -1.7748   -3.4011    3.8178 C   0  0  0  0  0  4           0  0  0
  1  7  1  0     0  0
  2 16  2  0     0  0
  3 16  1  0     0  0
  4 17  1  0     0  0
  5  8  1  0     0  0
  5  9  1  0     0  0
  5 18  1  0     0  0
  6  7  1  0     0  0
  6  8  2  0     0  0
  7  9  2  0     0  0
  8 19  1  0     0  0
  9 17  1  0     0  0
 10 12  2  0     0  0
 10 13  1  0     0  0
 10 16  1  0     0  0
 11 14  2  0     0  0
 11 15  1  0     0  0
 11 18  1  0     0  0
 12 14  1  0     0  0
 13 15  2  0     0  0
 19 20  1  0     0  0
 20 21  1  0     0  0
 21 22  1  0     0  0
M  END
> <standard_type>
pIC50

> <# Confs.>
25

> <canonical_smiles>
ClC(N=C1CCCC)=C(CO)N1CC2=CC=C(C(O)=O)C=C2

> <standard_relation>
=

> <Publication_ID>
nan

> <predicted_activity_value>
5.045757490560675

> <actual_activity_value>
4.552841968657781

> <Compound>
24

> <standard_units>
nM

> hash
15330608199569978610

$$$$
24_
XXILIB    08252103443D 0   0.00000     0.00000

 22 23  0     1  0            999 V2000
   -3.5582    0.0264   -1.4826 Cl  0  0  0  0  0  1           0  0  0
    4.2494   -5.7850    0.9470 O   0  0  0  0  0  2           0  0  0
    3.1602   -6.1346   -1.0105 O   0  0  0  0  0  2           0  0  0
   -0.2061   -1.3453   -2.9298 O   0  0  0  0  0  2           0  0  0
    0.0000    0.0000    0.0000 N   0  0  0  0  0  3           0  0  0
   -2.0853    0.0096    0.7678 N   0  0  0  0  0  3           0  0  0
   -2.0987    0.0167   -0.6018 C   0  0  0  0  0  4           0  0  0
   -0.8145   -0.0000    1.1166 C   0  0  0  0  0  4           0  0  0
   -0.8152    0.0106   -1.1152 C   0  0  0  0  0  4           0  0  0
    2.9999   -3.9967    0.0241 C   0  0  0  0  0  4           0  0  0
    1.9914   -1.3968    0.0000 C   0  0  0  0  0  4           0  0  0
    3.8856   -2.9207    0.0118 C   0  0  0  0  0  4           0  0  0
    1.6202   -3.7991    0.0391 C   0  0  0  0  0  4           0  0  0
    3.3771   -1.6218    0.0000 C   0  0  0  0  0  4           0  0  0
    1.1198   -2.4970    0.0269 C   0  0  0  0  0  4           0  0  0
    3.5341   -5.3737    0.0450 C   0  0  0  0  0  4           0  0  0
   -0.3339    0.0073   -2.5132 C   0  0  0  0  0  4           0  0  0
    1.4498    0.0000   -0.0000 C   0  0  0  0  0  4           0  0  0
   -0.3269   -0.0147    2.5229 C   0  0  0  0  0  4           0  0  0
   -0.1234    1.3905    3.0803 C   0  0  0  0  0  4           0  0  0
   -1.3891    2.2487    3.0981 C   0  0  0  0  0  4           0  0  0
   -1.1188    3.6339    3.6638 C   0  0  0  0  0  4           0  0  0
  1  7  1  0     0  0
  2 16  2  0     0  0
  3 16  1  0     0  0
  4 17  1  0     0  0
  5  8  1  0     0  0
  5  9  1  0     0  0
  5 18  1  0     0  0
  6  7  1  0     0  0
  6  8  2  0     0  0
  7  9  2  0     0  0
  8 19  1  0     0  0
  9 17  1  0     0  0
 10 12  2  0     0  0
 10 13  1  0     0  0
 10 16  1  0     0  0
 11 14  2  0     0  0
 11 15  1  0     0  0
 11 18  1  0     0  0
 12 14  1  0     0  0
 13 15  2  0     0  0
 19 20  1  0     0  0
 20 21  1  0     0  0
 21 22  1  0     0  0
M  END
> <standard_type>
pIC50

> <# Confs.>
25

> <canonical_smiles>
ClC(N=C1CCCC)=C(CO)N1CC2=CC=C(C(O)=O)C=C2

> <standard_relation>
=

> <Publication_ID>
nan

> <predicted_activity_value>
5.045757490560675

> <actual_activity_value>
4.552841968657781

> <Compound>
24

> <standard_units>
nM

> hash
15330608199569978610

$$$$
24_
XXILIB    08252103443D 0   0.00000     0.00000

 22 23  0     1  0            999 V2000
   -3.5582    0.0264   -1.4826 Cl  0  0  0  0  0  1           0  0  0
    2.8829    6.3150   -0.5186 O   0  0  0  0  0  2           0  0  0
    4.6834    5.5439    0.6233 O   0  0  0  0  0  2           0  0  0
    0.7020   -0.9598   -2.6181 O   0  0  0  0  0  2           0  0  0
    0.0000    0.0000    0.0000 N   0  0  0  0  0  3           0  0  0
   -2.0853    0.0096    0.7678 N   0  0  0  0  0  3           0  0  0
   -2.0987    0.0167   -0.6018 C   0  0  0  0  0  4           0  0  0
   -0.8145    0.0000    1.1166 C   0  0  0  0  0  4           0  0  0
   -0.8152    0.0106   -1.1152 C   0  0  0  0  0  4           0  0  0
    2.9772    4.0055   -0.0002 C   0  0  0  0  0  4           0  0  0
    1.9914    1.3968    0.0000 C   0  0  0  0  0  4           0  0  0
    2.7418    3.3643   -1.2151 C   0  0  0  0  0  4           0  0  0
    2.7162    3.3740    1.2147 C   0  0  0  0  0  4           0  0  0
    2.2484    2.0595   -1.2106 C   0  0  0  0  0  4           0  0  0
    2.2233    2.0691    1.2104 C   0  0  0  0  0  4           0  0  0
    3.4918    5.3901   -0.0005 C   0  0  0  0  0  4           0  0  0
   -0.3339    0.0073   -2.5132 C   0  0  0  0  0  4           0  0  0
    1.4498    0.0000   -0.0000 C   0  0  0  0  0  4           0  0  0
   -0.3269   -0.0147    2.5229 C   0  0  0  0  0  4           0  0  0
   -1.0894   -1.0112    3.3901 C   0  0  0  0  0  4           0  0  0
   -0.6236   -1.0625    4.8458 C   0  0  0  0  0  4           0  0  0
   -1.4219   -2.0728    5.6543 C   0  0  0  0  0  4           0  0  0
  1  7  1  0     0  0
  2 16  2  0     0  0
  3 16  1  0     0  0
  4 17  1  0     0  0
  5  8  1  0     0  0
  5  9  1  0     0  0
  5 18  1  0     0  0
  6  7  1  0     0  0
  6  8  2  0     0  0
  7  9  2  0     0  0
  8 19  1  0     0  0
  9 17  1  0     0  0
 10 12  2  0     0  0
 10 13  1  0     0  0
 10 16  1  0     0  0
 11 14  2  0     0  0
 11 15  1  0     0  0
 11 18  1  0     0  0
 12 14  1  0     0  0
 13 15  2  0     0  0
 19 20  1  0     0  0
 20 21  1  0     0  0
 21 22  1  0     0  0
M  END
> <standard_type>
pIC50

> <# Confs.>
25

> <canonical_smiles>
ClC(N=C1CCCC)=C(CO)N1CC2=CC=C(C(O)=O)C=C2

> <standard_relation>
=

> <Publication_ID>
nan

> <predicted_activity_value>
5.045757490560675

> <actual_activity_value>
4.552841968657781

> <Compound>
24

> <standard_units>
nM

> hash
15330608199569978610

$$$$
24_
XXILIB    08252103443D 0   0.00000     0.00000

 22 23  0     1  0            999 V2000
   -3.5582    0.0264   -1.4826 Cl  0  0  0  0  0  1           0  0  0
    4.2054   -5.8235    0.8935 O   0  0  0  0  0  2           0  0  0
    3.1018   -6.1317   -1.0629 O   0  0  0  0  0  2           0  0  0
   -0.2061   -1.3453   -2.9298 O   0  0  0  0  0  2           0  0  0
   -0.0000    0.0000    0.0000 N   0  0  0  0  0  3           0  0  0
   -2.0853    0.0096    0.7678 N   0  0  0  0  0  3           0  0  0
   -2.0987    0.0167   -0.6018 C   0  0  0  0  0  4           0  0  0
   -0.8145    0.0000    1.1166 C   0  0  0  0  0  4           0  0  0
   -0.8152    0.0106   -1.1152 C   0  0  0  0  0  4           0  0  0
    2.9772   -4.0055    0.0002 C   0  0  0  0  0  4           0  0  0
    1.9914   -1.3968    0.0000 C   0  0  0  0  0  4           0  0  0
    2.7418   -3.3643    1.2151 C   0  0  0  0  0  4           0  0  0
    2.7162   -3.3740   -1.2147 C   0  0  0  0  0  4           0  0  0
    2.2484   -2.0595    1.2106 C   0  0  0  0  0  4           0  0  0
    2.2233   -2.0691   -1.2104 C   0  0  0  0  0  4           0  0  0
    3.4918   -5.3901    0.0005 C   0  0  0  0  0  4           0  0  0
   -0.3339    0.0073   -2.5132 C   0  0  0  0  0  4           0  0  0
    1.4498   -0.0000    0.0000 C   0  0  0  0  0  4           0  0  0
   -0.3269   -0.0147    2.5229 C   0  0  0  0  0  4           0  0  0
   -1.0701    0.9841    3.4043 C   0  0  0  0  0  4           0  0  0
   -0.6035    1.0057    4.8605 C   0  0  0  0  0  4           0  0  0
    0.8684    1.3701    4.9718 C   0  0  0  0  0  4           0  0  0
  1  7  1  0     0  0
  2 16  2  0     0  0
  3 16  1  0     0  0
  4 17  1  0     0  0
  5  8  1  0     0  0
  5  9  1  0     0  0
  5 18  1  0     0  0
  6  7  1  0     0  0
  6  8  2  0     0  0
  7  9  2  0     0  0
  8 19  1  0     0  0
  9 17  1  0     0  0
 10 12  2  0     0  0
 10 13  1  0     0  0
 10 16  1  0     0  0
 11 14  2  0     0  0
 11 15  1  0     0  0
 11 18  1  0     0  0
 12 14  1  0     0  0
 13 15  2  0     0  0
 19 20  1  0     0  0
 20 21  1  0     0  0
 21 22  1  0     0  0
M  END
> <standard_type>
pIC50

> <# Confs.>
25

> <canonical_smiles>
ClC(N=C1CCCC)=C(CO)N1CC2=CC=C(C(O)=O)C=C2

> <standard_relation>
=

> <Publication_ID>
nan

> <predicted_activity_value>
5.045757490560675

> <actual_activity_value>
4.552841968657781

> <Compound>
24

> <standard_units>
nM

> hash
15330608199569978610

$$$$
24_
XXILIB    08252103443D 0   0.00000     0.00000

 22 23  0     1  0            999 V2000
   -3.5582    0.0264   -1.4826 Cl  0  0  0  0  0  1           0  0  0
    4.2054   -5.8235    0.8935 O   0  0  0  0  0  2           0  0  0
    3.1018   -6.1317   -1.0629 O   0  0  0  0  0  2           0  0  0
   -0.2061   -1.3453   -2.9298 O   0  0  0  0  0  2           0  0  0
   -0.0000    0.0000    0.0000 N   0  0  0  0  0  3           0  0  0
   -2.0853    0.0096    0.7678 N   0  0  0  0  0  3           0  0  0
   -2.0987    0.0167   -0.6018 C   0  0  0  0  0  4           0  0  0
   -0.8145    0.0000    1.1166 C   0  0  0  0  0  4           0  0  0
   -0.8152    0.0106   -1.1152 C   0  0  0  0  0  4           0  0  0
    2.9772   -4.0055    0.0002 C   0  0  0  0  0  4           0  0  0
    1.9914   -1.3968    0.0000 C   0  0  0  0  0  4           0  0  0
    2.7418   -3.3643    1.2151 C   0  0  0  0  0  4           0  0  0
    2.7162   -3.3740   -1.2147 C   0  0  0  0  0  4           0  0  0
    2.2484   -2.0595    1.2106 C   0  0  0  0  0  4           0  0  0
    2.2233   -2.0691   -1.2104 C   0  0  0  0  0  4           0  0  0
    3.4918   -5.3901    0.0005 C   0  0  0  0  0  4           0  0  0
   -0.3339    0.0073   -2.5132 C   0  0  0  0  0  4           0  0  0
    1.4498   -0.0000    0.0000 C   0  0  0  0  0  4           0  0  0
   -0.3269   -0.0147    2.5229 C   0  0  0  0  0  4           0  0  0
   -1.0701    0.9841    3.4043 C   0  0  0  0  0  4           0  0  0
   -0.9476    2.4382    2.9470 C   0  0  0  0  0  4           0  0  0
    0.5011    2.8997    2.9288 C   0  0  0  0  0  4           0  0  0
  1  7  1  0     0  0
  2 16  2  0     0  0
  3 16  1  0     0  0
  4 17  1  0     0  0
  5  8  1  0     0  0
  5  9  1  0     0  0
  5 18  1  0     0  0
  6  7  1  0     0  0
  6  8  2  0     0  0
  7  9  2  0     0  0
  8 19  1  0     0  0
  9 17  1  0     0  0
 10 12  2  0     0  0
 10 13  1  0     0  0
 10 16  1  0     0  0
 11 14  2  0     0  0
 11 15  1  0     0  0
 11 18  1  0     0  0
 12 14  1  0     0  0
 13 15  2  0     0  0
 19 20  1  0     0  0
 20 21  1  0     0  0
 21 22  1  0     0  0
M  END
> <standard_type>
pIC50

> <# Confs.>
25

> <canonical_smiles>
ClC(N=C1CCCC)=C(CO)N1CC2=CC=C(C(O)=O)C=C2

> <standard_relation>
=

> <Publication_ID>
nan

> <predicted_activity_value>
5.045757490560675

> <actual_activity_value>
4.552841968657781

> <Compound>
24

> <standard_units>
nM

> hash
15330608199569978610

$$$$
24_
XXILIB    08252103443D 0   0.00000     0.00000

 22 23  0     1  0            999 V2000
   -3.5582    0.0264   -1.4826 Cl  0  0  0  0  0  1           0  0  0
    4.2494   -5.7850    0.9470 O   0  0  0  0  0  2           0  0  0
    3.1602   -6.1346   -1.0105 O   0  0  0  0  0  2           0  0  0
   -0.2061   -1.3453   -2.9298 O   0  0  0  0  0  2           0  0  0
   -0.0000    0.0000    0.0000 N   0  0  0  0  0  3           0  0  0
   -2.0853    0.0096    0.7678 N   0  0  0  0  0  3           0  0  0
   -2.0987    0.0167   -0.6018 C   0  0  0  0  0  4           0  0  0
   -0.8145    0.0000    1.1166 C   0  0  0  0  0  4           0  0  0
   -0.8152    0.0106   -1.1152 C   0  0  0  0  0  4           0  0  0
    2.9999   -3.9967    0.0241 C   0  0  0  0  0  4           0  0  0
    1.9914   -1.3968    0.0000 C   0  0  0  0  0  4           0  0  0
    3.8856   -2.9207    0.0118 C   0  0  0  0  0  4           0  0  0
    1.6202   -3.7991    0.0391 C   0  0  0  0  0  4           0  0  0
    3.3771   -1.6218    0.0000 C   0  0  0  0  0  4           0  0  0
    1.1198   -2.4970    0.0269 C   0  0  0  0  0  4           0  0  0
    3.5341   -5.3737    0.0450 C   0  0  0  0  0  4           0  0  0
   -0.3339    0.0073   -2.5132 C   0  0  0  0  0  4           0  0  0
    1.4498    0.0000   -0.0000 C   0  0  0  0  0  4           0  0  0
   -0.3269   -0.0147    2.5229 C   0  0  0  0  0  4           0  0  0
   -1.4702   -0.0107    3.5326 C   0  0  0  0  0  4           0  0  0
   -1.0182   -0.0255    4.9935 C   0  0  0  0  0  4           0  0  0
   -2.2029   -0.0207    5.9465 C   0  0  0  0  0  4           0  0  0
  1  7  1  0     0  0
  2 16  2  0     0  0
  3 16  1  0     0  0
  4 17  1  0     0  0
  5  8  1  0     0  0
  5  9  1  0     0  0
  5 18  1  0     0  0
  6  7  1  0     0  0
  6  8  2  0     0  0
  7  9  2  0     0  0
  8 19  1  0     0  0
  9 17  1  0     0  0
 10 12  2  0     0  0
 10 13  1  0     0  0
 10 16  1  0     0  0
 11 14  2  0     0  0
 11 15  1  0     0  0
 11 18  1  0     0  0
 12 14  1  0     0  0
 13 15  2  0     0  0
 19 20  1  0     0  0
 20 21  1  0     0  0
 21 22  1  0     0  0
M  END
> <standard_type>
pIC50

> <# Confs.>
25

> <canonical_smiles>
ClC(N=C1CCCC)=C(CO)N1CC2=CC=C(C(O)=O)C=C2

> <standard_relation>
=

> <Publication_ID>
nan

> <predicted_activity_value>
5.045757490560675

> <actual_activity_value>
4.552841968657781

> <Compound>
24

> <standard_units>
nM

> hash
15330608199569978610

$$$$
24_
XXILIB    08252103443D 0   0.00000     0.00000

 22 23  0     1  0            999 V2000
   -3.5582    0.0264   -1.4826 Cl  0  0  0  0  0  1           0  0  0
    4.2494   -5.7850    0.9470 O   0  0  0  0  0  2           0  0  0
    3.1602   -6.1346   -1.0105 O   0  0  0  0  0  2           0  0  0
   -0.2061   -1.3453   -2.9298 O   0  0  0  0  0  2           0  0  0
    0.0000    0.0000    0.0000 N   0  0  0  0  0  3           0  0  0
   -2.0853    0.0096    0.7678 N   0  0  0  0  0  3           0  0  0
   -2.0987    0.0167   -0.6018 C   0  0  0  0  0  4           0  0  0
   -0.8145    0.0000    1.1166 C   0  0  0  0  0  4           0  0  0
   -0.8152    0.0106   -1.1152 C   0  0  0  0  0  4           0  0  0
    2.9999   -3.9967    0.0241 C   0  0  0  0  0  4           0  0  0
    1.9914   -1.3968    0.0000 C   0  0  0  0  0  4           0  0  0
    3.8856   -2.9207    0.0118 C   0  0  0  0  0  4           0  0  0
    1.6202   -3.7991    0.0391 C   0  0  0  0  0  4           0  0  0
    3.3771   -1.6218    0.0000 C   0  0  0  0  0  4           0  0  0
    1.1198   -2.4970    0.0269 C   0  0  0  0  0  4           0  0  0
    3.5341   -5.3737    0.0450 C   0  0  0  0  0  4           0  0  0
   -0.3339    0.0073   -2.5132 C   0  0  0  0  0  4           0  0  0
    1.4498    0.0000   -0.0000 C   0  0  0  0  0  4           0  0  0
   -0.3269   -0.0147    2.5229 C   0  0  0  0  0  4           0  0  0
   -1.0894   -1.0112    3.3901 C   0  0  0  0  0  4           0  0  0
   -0.9951   -2.4609    2.9124 C   0  0  0  0  0  4           0  0  0
   -1.7748   -3.4011    3.8178 C   0  0  0  0  0  4           0  0  0
  1  7  1  0     0  0
  2 16  2  0     0  0
  3 16  1  0     0  0
  4 17  1  0     0  0
  5  8  1  0     0  0
  5  9  1  0     0  0
  5 18  1  0     0  0
  6  7  1  0     0  0
  6  8  2  0     0  0
  7  9  2  0     0  0
  8 19  1  0     0  0
  9 17  1  0     0  0
 10 12  2  0     0  0
 10 13  1  0     0  0
 10 16  1  0     0  0
 11 14  2  0     0  0
 11 15  1  0     0  0
 11 18  1  0     0  0
 12 14  1  0     0  0
 13 15  2  0     0  0
 19 20  1  0     0  0
 20 21  1  0     0  0
 21 22  1  0     0  0
M  END
> <standard_type>
pIC50

> <# Confs.>
25

> <canonical_smiles>
ClC(N=C1CCCC)=C(CO)N1CC2=CC=C(C(O)=O)C=C2

> <standard_relation>
=

> <Publication_ID>
nan

> <predicted_activity_value>
5.045757490560675

> <actual_activity_value>
4.552841968657781

> <Compound>
24

> <standard_units>
nM

> hash
15330608199569978610

$$$$
24_
XXILIB    08252103443D 0   0.00000     0.00000

 22 23  0     1  0            999 V2000
   -3.5582    0.0264   -1.4826 Cl  0  0  0  0  0  1           0  0  0
    2.8829   -6.3150    0.5186 O   0  0  0  0  0  2           0  0  0
    4.6834   -5.5439   -0.6233 O   0  0  0  0  0  2           0  0  0
   -0.2061   -1.3453   -2.9298 O   0  0  0  0  0  2           0  0  0
    0.0000    0.0000    0.0000 N   0  0  0  0  0  3           0  0  0
   -2.0853    0.0096    0.7678 N   0  0  0  0  0  3           0  0  0
   -2.0987    0.0167   -0.6018 C   0  0  0  0  0  4           0  0  0
   -0.8145    0.0000    1.1166 C   0  0  0  0  0  4           0  0  0
   -0.8152    0.0106   -1.1152 C   0  0  0  0  0  4           0  0  0
    2.9772   -4.0055    0.0002 C   0  0  0  0  0  4           0  0  0
    1.9914   -1.3968    0.0000 C   0  0  0  0  0  4           0  0  0
    2.7418   -3.3643    1.2151 C   0  0  0  0  0  4           0  0  0
    2.7162   -3.3740   -1.2147 C   0  0  0  0  0  4           0  0  0
    2.2484   -2.0595    1.2106 C   0  0  0  0  0  4           0  0  0
    2.2233   -2.0691   -1.2104 C   0  0  0  0  0  4           0  0  0
    3.4918   -5.3901    0.0005 C   0  0  0  0  0  4           0  0  0
   -0.3339    0.0073   -2.5132 C   0  0  0  0  0  4           0  0  0
    1.4498   -0.0000    0.0000 C   0  0  0  0  0  4           0  0  0
   -0.3269   -0.0147    2.5229 C   0  0  0  0  0  4           0  0  0
   -1.0894   -1.0112    3.3901 C   0  0  0  0  0  4           0  0  0
   -0.6236   -1.0625    4.8458 C   0  0  0  0  0  4           0  0  0
   -1.4219   -2.0728    5.6543 C   0  0  0  0  0  4           0  0  0
  1  7  1  0     0  0
  2 16  2  0     0  0
  3 16  1  0     0  0
  4 17  1  0     0  0
  5  8  1  0     0  0
  5  9  1  0     0  0
  5 18  1  0     0  0
  6  7  1  0     0  0
  6  8  2  0     0  0
  7  9  2  0     0  0
  8 19  1  0     0  0
  9 17  1  0     0  0
 10 12  2  0     0  0
 10 13  1  0     0  0
 10 16  1  0     0  0
 11 14  2  0     0  0
 11 15  1  0     0  0
 11 18  1  0     0  0
 12 14  1  0     0  0
 13 15  2  0     0  0
 19 20  1  0     0  0
 20 21  1  0     0  0
 21 22  1  0     0  0
M  END
> <standard_type>
pIC50

> <# Confs.>
25

> <canonical_smiles>
ClC(N=C1CCCC)=C(CO)N1CC2=CC=C(C(O)=O)C=C2

> <standard_relation>
=

> <Publication_ID>
nan

> <predicted_activity_value>
5.045757490560675

> <actual_activity_value>
4.552841968657781

> <Compound>
24

> <standard_units>
nM

> hash
15330608199569978610

$$$$
3_
XXILIB    08252103443D 0   0.00000     0.00000

 30 33  0     1  0            999 V2000
    5.1422    1.6003   -0.1306 Br  0  0  0  0  0  1           0  0  0
    1.6561    2.9360    1.3255 O   0  0  0  0  0  2           0  0  0
   -5.3910   -1.4412    2.9777 N   0  0  0  0  0  3           0  0  0
   -5.3189   -2.5916    3.6333 N   0  0  0  0  0  3           0  0  0
   -4.6472   -0.5866    3.6928 N   0  0  0  0  0  3           0  0  0
   -4.5362   -2.4722    4.7581 N   0  0  0  0  0  3           0  0  0
    1.4522   -0.0000    0.0000 N   0  0  0  0  0  3           0  0  0
    3.5408   -0.7602   -0.0401 N   0  0  0  0  0  3           0  0  0
    3.5408    0.6060   -0.0614 C   0  0  0  0  0  4           0  0  0
   -4.1215   -1.2207    4.7857 C   0  0  0  0  0  4           0  0  0
    2.2714   -1.1136    0.0000 C   0  0  0  0  0  4           0  0  0
    2.2609    1.1201   -0.0296 C   0  0  0  0  0  4           0  0  0
   -3.2747   -0.5838    5.7647 C   0  0  0  0  0  4           0  0  0
   -2.0364    0.0012    5.4141 C   0  0  0  0  0  4           0  0  0
   -1.5275    0.0005    4.0481 C   0  0  0  0  0  4           0  0  0
   -0.5412    0.0000    1.3973 C   0  0  0  0  0  4           0  0  0
   -3.7044   -0.5629    7.1019 C   0  0  0  0  0  4           0  0  0
   -1.2671    0.6012    6.4297 C   0  0  0  0  0  4           0  0  0
   -1.2884   -1.2046    3.3712 C   0  0  0  0  0  4           0  0  0
   -1.2624    1.2052    3.3807 C   0  0  0  0  0  4           0  0  0
   -0.7987   -1.2048    2.0620 C   0  0  0  0  0  4           0  0  0
   -0.7726    1.2049    2.0716 C   0  0  0  0  0  4           0  0  0
   -2.9250    0.0369    8.0896 C   0  0  0  0  0  4           0  0  0
   -1.7078    0.6199    7.7539 C   0  0  0  0  0  4           0  0  0
    1.7667    2.5135   -0.0268 C   0  0  0  0  0  4           0  0  0
    0.0000   -0.0000    0.0000 C   0  0  0  0  0  4           0  0  0
    1.7906   -2.5220    0.0467 C   0  0  0  0  0  4           0  0  0
    2.5287   -3.3968   -0.9602 C   0  0  0  0  0  4           0  0  0
    2.0834   -4.8599   -0.9659 C   0  0  0  0  0  4           0  0  0
    2.8396   -5.7037   -1.9814 C   0  0  0  0  0  4           0  0  0
  1  9  1  0     0  0
  2 25  1  0     0  0
  3  4  2  0     0  0
  3  5  1  0     0  0
  4  6  1  0     0  0
  5 10  1  0     0  0
  6 10  2  0     0  0
  7 11  1  0     0  0
  7 12  1  0     0  0
  7 26  1  0     0  0
  8  9  1  0     0  0
  8 11  2  0     0  0
  9 12  2  0     0  0
 10 13  1  0     0  0
 11 27  1  0     0  0
 12 25  1  0     0  0
 13 14  1  0     0  0
 13 17  2  0     0  0
 14 15  1  0     0  0
 14 18  2  0     0  0
 15 19  2  0     0  0
 15 20  1  0     0  0
 16 21  2  0     0  0
 16 22  1  0     0  0
 16 26  1  0     0  0
 17 23  1  0     0  0
 18 24  1  0     0  0
 19 21  1  0     0  0
 20 22  2  0     0  0
 23 24  2  0     0  0
 27 28  1  0     0  0
 28 29  1  0     0  0
 29 30  1  0     0  0
M  END
> <standard_type>
pIC50

> <# Confs.>
25

> <canonical_smiles>
OCC1=C(Br)N=C(CCCC)N1CC2=CC=C(C3=CC=CC=C3C4=NN=NN4)C=C2

> <standard_relation>
=

> <Publication_ID>
nan

> <predicted_activity_value>
7.267606240177032

> <actual_activity_value>
7.721246399047171

> <Compound>
3

> <standard_units>
nM

> hash
3515073872214053168

$$$$
3_
XXILIB    08252103443D 0   0.00000     0.00000

 30 33  0     1  0            999 V2000
    5.1422    1.6003   -0.1306 Br  0  0  0  0  0  1           0  0  0
    1.6561    2.9360    1.3255 O   0  0  0  0  0  2           0  0  0
    2.0595   -1.5386    5.7448 N   0  0  0  0  0  3           0  0  0
    1.5495   -2.6808    6.1847 N   0  0  0  0  0  3           0  0  0
    1.0508   -0.6594    5.8109 N   0  0  0  0  0  3           0  0  0
    0.2258   -2.5322    6.5281 N   0  0  0  0  0  3           0  0  0
    1.4522   -0.0000    0.0000 N   0  0  0  0  0  3           0  0  0
    3.5408   -0.7602   -0.0401 N   0  0  0  0  0  3           0  0  0
    3.5408    0.6060   -0.0614 C   0  0  0  0  0  4           0  0  0
   -0.0750   -1.2699    6.2931 C   0  0  0  0  0  4           0  0  0
    2.2714   -1.1136    0.0000 C   0  0  0  0  0  4           0  0  0
    2.2609    1.1201   -0.0296 C   0  0  0  0  0  4           0  0  0
   -1.3406   -0.6047    6.4852 C   0  0  0  0  0  4           0  0  0
   -2.0364    0.0012    5.4141 C   0  0  0  0  0  4           0  0  0
   -1.5275    0.0005    4.0481 C   0  0  0  0  0  4           0  0  0
   -0.5412    0.0000    1.3973 C   0  0  0  0  0  4           0  0  0
   -1.8769   -0.5587    7.7827 C   0  0  0  0  0  4           0  0  0
   -3.2654    0.6330    5.6853 C   0  0  0  0  0  4           0  0  0
   -1.2884   -1.2046    3.3712 C   0  0  0  0  0  4           0  0  0
   -1.2624    1.2052    3.3807 C   0  0  0  0  0  4           0  0  0
   -0.7987   -1.2048    2.0620 C   0  0  0  0  0  4           0  0  0
   -0.7726    1.2049    2.0716 C   0  0  0  0  0  4           0  0  0
   -3.0953    0.0729    8.0261 C   0  0  0  0  0  4           0  0  0
   -3.7901    0.6672    6.9782 C   0  0  0  0  0  4           0  0  0
    1.7667    2.5135   -0.0268 C   0  0  0  0  0  4           0  0  0
    0.0000    0.0000    0.0000 C   0  0  0  0  0  4           0  0  0
    1.7906   -2.5220    0.0467 C   0  0  0  0  0  4           0  0  0
    2.5287   -3.3968   -0.9602 C   0  0  0  0  0  4           0  0  0
    2.0834   -4.8599   -0.9659 C   0  0  0  0  0  4           0  0  0
    2.8396   -5.7037   -1.9814 C   0  0  0  0  0  4           0  0  0
  1  9  1  0     0  0
  2 25  1  0     0  0
  3  4  2  0     0  0
  3  5  1  0     0  0
  4  6  1  0     0  0
  5 10  1  0     0  0
  6 10  2  0     0  0
  7 11  1  0     0  0
  7 12  1  0     0  0
  7 26  1  0     0  0
  8  9  1  0     0  0
  8 11  2  0     0  0
  9 12  2  0     0  0
 10 13  1  0     0  0
 11 27  1  0     0  0
 12 25  1  0     0  0
 13 14  1  0     0  0
 13 17  2  0     0  0
 14 15  1  0     0  0
 14 18  2  0     0  0
 15 19  2  0     0  0
 15 20  1  0     0  0
 16 21  2  0     0  0
 16 22  1  0     0  0
 16 26  1  0     0  0
 17 23  1  0     0  0
 18 24  1  0     0  0
 19 21  1  0     0  0
 20 22  2  0     0  0
 23 24  2  0     0  0
 27 28  1  0     0  0
 28 29  1  0     0  0
 29 30  1  0     0  0
M  END
> <standard_type>
pIC50

> <# Confs.>
25

> <canonical_smiles>
OCC1=C(Br)N=C(CCCC)N1CC2=CC=C(C3=CC=CC=C3C4=NN=NN4)C=C2

> <standard_relation>
=

> <Publication_ID>
nan

> <predicted_activity_value>
7.267606240177032

> <actual_activity_value>
7.721246399047171

> <Compound>
3

> <standard_units>
nM

> hash
3515073872214053168

$$$$
3_
XXILIB    08252103443D 0   0.00000     0.00000

 30 33  0     1  0            999 V2000
    5.1422    1.6003   -0.1306 Br  0  0  0  0  0  1           0  0  0
    1.6561    2.9360    1.3255 O   0  0  0  0  0  2           0  0  0
   -5.3910   -1.4412    2.9777 N   0  0  0  0  0  3           0  0  0
   -5.3189   -2.5916    3.6333 N   0  0  0  0  0  3           0  0  0
   -4.6472   -0.5866    3.6928 N   0  0  0  0  0  3           0  0  0
   -4.5362   -2.4722    4.7581 N   0  0  0  0  0  3           0  0  0
    1.4522   -0.0000    0.0000 N   0  0  0  0  0  3           0  0  0
    3.5408   -0.7602   -0.0401 N   0  0  0  0  0  3           0  0  0
    3.5408    0.6060   -0.0614 C   0  0  0  0  0  4           0  0  0
   -4.1215   -1.2207    4.7857 C   0  0  0  0  0  4           0  0  0
    2.2714   -1.1136    0.0000 C   0  0  0  0  0  4           0  0  0
    2.2609    1.1201   -0.0296 C   0  0  0  0  0  4           0  0  0
   -3.2747   -0.5838    5.7647 C   0  0  0  0  0  4           0  0  0
   -2.0364    0.0012    5.4141 C   0  0  0  0  0  4           0  0  0
   -1.5275    0.0005    4.0481 C   0  0  0  0  0  4           0  0  0
   -0.5412    0.0000    1.3973 C   0  0  0  0  0  4           0  0  0
   -3.7044   -0.5629    7.1019 C   0  0  0  0  0  4           0  0  0
   -1.2671    0.6012    6.4297 C   0  0  0  0  0  4           0  0  0
   -1.2884   -1.2046    3.3712 C   0  0  0  0  0  4           0  0  0
   -1.2624    1.2052    3.3807 C   0  0  0  0  0  4           0  0  0
   -0.7987   -1.2048    2.0620 C   0  0  0  0  0  4           0  0  0
   -0.7726    1.2049    2.0716 C   0  0  0  0  0  4           0  0  0
   -2.9250    0.0369    8.0896 C   0  0  0  0  0  4           0  0  0
   -1.7078    0.6199    7.7539 C   0  0  0  0  0  4           0  0  0
    1.7667    2.5135   -0.0268 C   0  0  0  0  0  4           0  0  0
    0.0000   -0.0000    0.0000 C   0  0  0  0  0  4           0  0  0
    1.7906   -2.5220    0.0467 C   0  0  0  0  0  4           0  0  0
    2.5287   -3.3968   -0.9602 C   0  0  0  0  0  4           0  0  0
    2.3731   -2.9484   -2.4141 C   0  0  0  0  0  4           0  0  0
    3.1216   -3.8424   -3.3915 C   0  0  0  0  0  4           0  0  0
  1  9  1  0     0  0
  2 25  1  0     0  0
  3  4  2  0     0  0
  3  5  1  0     0  0
  4  6  1  0     0  0
  5 10  1  0     0  0
  6 10  2  0     0  0
  7 11  1  0     0  0
  7 12  1  0     0  0
  7 26  1  0     0  0
  8  9  1  0     0  0
  8 11  2  0     0  0
  9 12  2  0     0  0
 10 13  1  0     0  0
 11 27  1  0     0  0
 12 25  1  0     0  0
 13 14  1  0     0  0
 13 17  2  0     0  0
 14 15  1  0     0  0
 14 18  2  0     0  0
 15 19  2  0     0  0
 15 20  1  0     0  0
 16 21  2  0     0  0
 16 22  1  0     0  0
 16 26  1  0     0  0
 17 23  1  0     0  0
 18 24  1  0     0  0
 19 21  1  0     0  0
 20 22  2  0     0  0
 23 24  2  0     0  0
 27 28  1  0     0  0
 28 29  1  0     0  0
 29 30  1  0     0  0
M  END
> <standard_type>
pIC50

> <# Confs.>
25

> <canonical_smiles>
OCC1=C(Br)N=C(CCCC)N1CC2=CC=C(C3=CC=CC=C3C4=NN=NN4)C=C2

> <standard_relation>
=

> <Publication_ID>
nan

> <predicted_activity_value>
7.267606240177032

> <actual_activity_value>
7.721246399047171

> <Compound>
3

> <standard_units>
nM

> hash
3515073872214053168

$$$$
3_
XXILIB    08252103443D 0   0.00000     0.00000

 30 33  0     1  0            999 V2000
    5.1422    1.6003   -0.1306 Br  0  0  0  0  0  1           0  0  0
    1.6561    2.9360    1.3255 O   0  0  0  0  0  2           0  0  0
    2.0595   -1.5386    5.7448 N   0  0  0  0  0  3           0  0  0
    1.5495   -2.6808    6.1847 N   0  0  0  0  0  3           0  0  0
    1.0508   -0.6594    5.8109 N   0  0  0  0  0  3           0  0  0
    0.2258   -2.5322    6.5281 N   0  0  0  0  0  3           0  0  0
    1.4522   -0.0000    0.0000 N   0  0  0  0  0  3           0  0  0
    3.5408   -0.7602   -0.0401 N   0  0  0  0  0  3           0  0  0
    3.5408    0.6060   -0.0614 C   0  0  0  0  0  4           0  0  0
   -0.0750   -1.2699    6.2931 C   0  0  0  0  0  4           0  0  0
    2.2714   -1.1136    0.0000 C   0  0  0  0  0  4           0  0  0
    2.2609    1.1201   -0.0296 C   0  0  0  0  0  4           0  0  0
   -1.3406   -0.6047    6.4852 C   0  0  0  0  0  4           0  0  0
   -2.0364    0.0012    5.4141 C   0  0  0  0  0  4           0  0  0
   -1.5275    0.0005    4.0481 C   0  0  0  0  0  4           0  0  0
   -0.5412    0.0000    1.3973 C   0  0  0  0  0  4           0  0  0
   -1.8769   -0.5587    7.7827 C   0  0  0  0  0  4           0  0  0
   -3.2654    0.6330    5.6853 C   0  0  0  0  0  4           0  0  0
   -1.2884   -1.2046    3.3712 C   0  0  0  0  0  4           0  0  0
   -1.2624    1.2052    3.3807 C   0  0  0  0  0  4           0  0  0
   -0.7987   -1.2048    2.0620 C   0  0  0  0  0  4           0  0  0
   -0.7726    1.2049    2.0716 C   0  0  0  0  0  4           0  0  0
   -3.0953    0.0729    8.0261 C   0  0  0  0  0  4           0  0  0
   -3.7901    0.6672    6.9782 C   0  0  0  0  0  4           0  0  0
    1.7667    2.5135   -0.0268 C   0  0  0  0  0  4           0  0  0
    0.0000    0.0000    0.0000 C   0  0  0  0  0  4           0  0  0
    1.7906   -2.5220    0.0467 C   0  0  0  0  0  4           0  0  0
    2.5287   -3.3968   -0.9602 C   0  0  0  0  0  4           0  0  0
    2.3731   -2.9484   -2.4141 C   0  0  0  0  0  4           0  0  0
    3.1216   -3.8424   -3.3915 C   0  0  0  0  0  4           0  0  0
  1  9  1  0     0  0
  2 25  1  0     0  0
  3  4  2  0     0  0
  3  5  1  0     0  0
  4  6  1  0     0  0
  5 10  1  0     0  0
  6 10  2  0     0  0
  7 11  1  0     0  0
  7 12  1  0     0  0
  7 26  1  0     0  0
  8  9  1  0     0  0
  8 11  2  0     0  0
  9 12  2  0     0  0
 10 13  1  0     0  0
 11 27  1  0     0  0
 12 25  1  0     0  0
 13 14  1  0     0  0
 13 17  2  0     0  0
 14 15  1  0     0  0
 14 18  2  0     0  0
 15 19  2  0     0  0
 15 20  1  0     0  0
 16 21  2  0     0  0
 16 22  1  0     0  0
 16 26  1  0     0  0
 17 23  1  0     0  0
 18 24  1  0     0  0
 19 21  1  0     0  0
 20 22  2  0     0  0
 23 24  2  0     0  0
 27 28  1  0     0  0
 28 29  1  0     0  0
 29 30  1  0     0  0
M  END
> <standard_type>
pIC50

> <# Confs.>
25

> <canonical_smiles>
OCC1=C(Br)N=C(CCCC)N1CC2=CC=C(C3=CC=CC=C3C4=NN=NN4)C=C2

> <standard_relation>
=

> <Publication_ID>
nan

> <predicted_activity_value>
7.267606240177032

> <actual_activity_value>
7.721246399047171

> <Compound>
3

> <standard_units>
nM

> hash
3515073872214053168

$$$$
3_
XXILIB    08252103443D 0   0.00000     0.00000

 30 33  0     1  0            999 V2000
    5.1422   -1.6003    0.1306 Br  0  0  0  0  0  1           0  0  0
    1.6561   -2.9360   -1.3255 O   0  0  0  0  0  2           0  0  0
   -3.2863    3.9132    3.6741 N   0  0  0  0  0  3           0  0  0
   -2.5390    4.4970    4.6010 N   0  0  0  0  0  3           0  0  0
   -3.4154    2.6433    4.0809 N   0  0  0  0  0  3           0  0  0
   -2.1932    3.6068    5.5911 N   0  0  0  0  0  3           0  0  0
    1.4522   -0.0000   -0.0000 N   0  0  0  0  0  3           0  0  0
    3.5408    0.7602    0.0401 N   0  0  0  0  0  3           0  0  0
    3.5408   -0.6060    0.0614 C   0  0  0  0  0  4           0  0  0
   -2.7447    2.4558    5.2590 C   0  0  0  0  0  4           0  0  0
    2.2714    1.1136    0.0000 C   0  0  0  0  0  4           0  0  0
    2.2609   -1.1201    0.0296 C   0  0  0  0  0  4           0  0  0
   -2.6808    1.2000    5.9661 C   0  0  0  0  0  4           0  0  0
   -2.1274    0.0392    5.3788 C   0  0  0  0  0  4           0  0  0
   -1.5880    0.0263    4.0246 C   0  0  0  0  0  4           0  0  0
   -0.5412    0.0000    1.3973 C   0  0  0  0  0  4           0  0  0
   -3.1973    1.1452    7.2712 C   0  0  0  0  0  4           0  0  0
   -2.1046   -1.1486    6.1350 C   0  0  0  0  0  4           0  0  0
   -0.5201    0.8633    3.6688 C   0  0  0  0  0  4           0  0  0
   -2.1271   -0.8211    3.0458 C   0  0  0  0  0  4           0  0  0
   -0.0043    0.8520    2.3697 C   0  0  0  0  0  4           0  0  0
   -1.6113   -0.8323    1.7468 C   0  0  0  0  0  4           0  0  0
   -3.1636   -0.0426    7.9997 C   0  0  0  0  0  4           0  0  0
   -2.6164   -1.1886    7.4329 C   0  0  0  0  0  4           0  0  0
    1.7667   -2.5135    0.0268 C   0  0  0  0  0  4           0  0  0
    0.0000    0.0000   -0.0000 C   0  0  0  0  0  4           0  0  0
    1.7906    2.5220   -0.0467 C   0  0  0  0  0  4           0  0  0
    1.6542    3.0171   -1.4822 C   0  0  0  0  0  4           0  0  0
    1.1632    4.4604   -1.6043 C   0  0  0  0  0  4           0  0  0
    1.0386    4.9218   -3.0488 C   0  0  0  0  0  4           0  0  0
  1  9  1  0     0  0
  2 25  1  0     0  0
  3  4  2  0     0  0
  3  5  1  0     0  0
  4  6  1  0     0  0
  5 10  1  0     0  0
  6 10  2  0     0  0
  7 11  1  0     0  0
  7 12  1  0     0  0
  7 26  1  0     0  0
  8  9  1  0     0  0
  8 11  2  0     0  0
  9 12  2  0     0  0
 10 13  1  0     0  0
 11 27  1  0     0  0
 12 25  1  0     0  0
 13 14  1  0     0  0
 13 17  2  0     0  0
 14 15  1  0     0  0
 14 18  2  0     0  0
 15 19  2  0     0  0
 15 20  1  0     0  0
 16 21  2  0     0  0
 16 22  1  0     0  0
 16 26  1  0     0  0
 17 23  1  0     0  0
 18 24  1  0     0  0
 19 21  1  0     0  0
 20 22  2  0     0  0
 23 24  2  0     0  0
 27 28  1  0     0  0
 28 29  1  0     0  0
 29 30  1  0     0  0
M  END
> <standard_type>
pIC50

> <# Confs.>
25

> <canonical_smiles>
OCC1=C(Br)N=C(CCCC)N1CC2=CC=C(C3=CC=CC=C3C4=NN=NN4)C=C2

> <standard_relation>
=

> <Publication_ID>
nan

> <predicted_activity_value>
7.267606240177032

> <actual_activity_value>
7.721246399047171

> <Compound>
3

> <standard_units>
nM

> hash
3515073872214053168

$$$$
3_
XXILIB    08252103443D 0   0.00000     0.00000

 30 33  0     1  0            999 V2000
    5.1422   -1.6003    0.1306 Br  0  0  0  0  0  1           0  0  0
    0.7450   -2.6136   -0.9558 O   0  0  0  0  0  2           0  0  0
    2.0595   -1.5386    5.7448 N   0  0  0  0  0  3           0  0  0
    1.5495   -2.6808    6.1847 N   0  0  0  0  0  3           0  0  0
    1.0508   -0.6594    5.8109 N   0  0  0  0  0  3           0  0  0
    0.2258   -2.5322    6.5281 N   0  0  0  0  0  3           0  0  0
    1.4522    0.0000    0.0000 N   0  0  0  0  0  3           0  0  0
    3.5408    0.7602    0.0401 N   0  0  0  0  0  3           0  0  0
    3.5408   -0.6060    0.0614 C   0  0  0  0  0  4           0  0  0
   -0.0750   -1.2699    6.2931 C   0  0  0  0  0  4           0  0  0
    2.2714    1.1136    0.0000 C   0  0  0  0  0  4           0  0  0
    2.2609   -1.1201    0.0296 C   0  0  0  0  0  4           0  0  0
   -1.3406   -0.6047    6.4852 C   0  0  0  0  0  4           0  0  0
   -2.0364    0.0012    5.4141 C   0  0  0  0  0  4           0  0  0
   -1.5275    0.0005    4.0481 C   0  0  0  0  0  4           0  0  0
   -0.5412    0.0000    1.3973 C   0  0  0  0  0  4           0  0  0
   -1.8769   -0.5587    7.7827 C   0  0  0  0  0  4           0  0  0
   -3.2654    0.6330    5.6853 C   0  0  0  0  0  4           0  0  0
   -1.2884   -1.2046    3.3712 C   0  0  0  0  0  4           0  0  0
   -1.2624    1.2052    3.3807 C   0  0  0  0  0  4           0  0  0
   -0.7987   -1.2048    2.0620 C   0  0  0  0  0  4           0  0  0
   -0.7726    1.2049    2.0716 C   0  0  0  0  0  4           0  0  0
   -3.0953    0.0729    8.0261 C   0  0  0  0  0  4           0  0  0
   -3.7901    0.6672    6.9782 C   0  0  0  0  0  4           0  0  0
    1.7667   -2.5135    0.0268 C   0  0  0  0  0  4           0  0  0
    0.0000    0.0000    0.0000 C   0  0  0  0  0  4           0  0  0
    1.7906    2.5220   -0.0467 C   0  0  0  0  0  4           0  0  0
    2.5905    3.3513   -1.0450 C   0  0  0  0  0  4           0  0  0
    2.5240    2.8373   -2.4839 C   0  0  0  0  0  4           0  0  0
    3.3326    3.6873   -3.4528 C   0  0  0  0  0  4           0  0  0
  1  9  1  0     0  0
  2 25  1  0     0  0
  3  4  2  0     0  0
  3  5  1  0     0  0
  4  6  1  0     0  0
  5 10  1  0     0  0
  6 10  2  0     0  0
  7 11  1  0     0  0
  7 12  1  0     0  0
  7 26  1  0     0  0
  8  9  1  0     0  0
  8 11  2  0     0  0
  9 12  2  0     0  0
 10 13  1  0     0  0
 11 27  1  0     0  0
 12 25  1  0     0  0
 13 14  1  0     0  0
 13 17  2  0     0  0
 14 15  1  0     0  0
 14 18  2  0     0  0
 15 19  2  0     0  0
 15 20  1  0     0  0
 16 21  2  0     0  0
 16 22  1  0     0  0
 16 26  1  0     0  0
 17 23  1  0     0  0
 18 24  1  0     0  0
 19 21  1  0     0  0
 20 22  2  0     0  0
 23 24  2  0     0  0
 27 28  1  0     0  0
 28 29  1  0     0  0
 29 30  1  0     0  0
M  END
> <standard_type>
pIC50

> <# Confs.>
25

> <canonical_smiles>
OCC1=C(Br)N=C(CCCC)N1CC2=CC=C(C3=CC=CC=C3C4=NN=NN4)C=C2

> <standard_relation>
=

> <Publication_ID>
nan

> <predicted_activity_value>
7.267606240177032

> <actual_activity_value>
7.721246399047171

> <Compound>
3

> <standard_units>
nM

> hash
3515073872214053168

$$$$
3_
XXILIB    08252103443D 0   0.00000     0.00000

 30 33  0     1  0            999 V2000
    5.1422   -1.6003    0.1306 Br  0  0  0  0  0  1           0  0  0
    0.7450   -2.6136   -0.9558 O   0  0  0  0  0  2           0  0  0
    2.0595   -1.5386    5.7448 N   0  0  0  0  0  3           0  0  0
    1.5495   -2.6808    6.1847 N   0  0  0  0  0  3           0  0  0
    1.0508   -0.6594    5.8109 N   0  0  0  0  0  3           0  0  0
    0.2258   -2.5322    6.5281 N   0  0  0  0  0  3           0  0  0
    1.4522    0.0000    0.0000 N   0  0  0  0  0  3           0  0  0
    3.5408    0.7602    0.0401 N   0  0  0  0  0  3           0  0  0
    3.5408   -0.6060    0.0614 C   0  0  0  0  0  4           0  0  0
   -0.0750   -1.2699    6.2931 C   0  0  0  0  0  4           0  0  0
    2.2714    1.1136    0.0000 C   0  0  0  0  0  4           0  0  0
    2.2609   -1.1201    0.0296 C   0  0  0  0  0  4           0  0  0
   -1.3406   -0.6047    6.4852 C   0  0  0  0  0  4           0  0  0
   -2.0364    0.0012    5.4141 C   0  0  0  0  0  4           0  0  0
   -1.5275    0.0005    4.0481 C   0  0  0  0  0  4           0  0  0
   -0.5412    0.0000    1.3973 C   0  0  0  0  0  4           0  0  0
   -1.8769   -0.5587    7.7827 C   0  0  0  0  0  4           0  0  0
   -3.2654    0.6330    5.6853 C   0  0  0  0  0  4           0  0  0
   -1.2884   -1.2046    3.3712 C   0  0  0  0  0  4           0  0  0
   -1.2624    1.2052    3.3807 C   0  0  0  0  0  4           0  0  0
   -0.7987   -1.2048    2.0620 C   0  0  0  0  0  4           0  0  0
   -0.7726    1.2049    2.0716 C   0  0  0  0  0  4           0  0  0
   -3.0953    0.0729    8.0261 C   0  0  0  0  0  4           0  0  0
   -3.7901    0.6672    6.9782 C   0  0  0  0  0  4           0  0  0
    1.7667   -2.5135    0.0268 C   0  0  0  0  0  4           0  0  0
    0.0000    0.0000    0.0000 C   0  0  0  0  0  4           0  0  0
    1.7906    2.5220   -0.0467 C   0  0  0  0  0  4           0  0  0
    2.5905    3.3513   -1.0450 C   0  0  0  0  0  4           0  0  0
    2.1484    4.8120   -1.1443 C   0  0  0  0  0  4           0  0  0
    2.9668    5.6101   -2.1484 C   0  0  0  0  0  4           0  0  0
  1  9  1  0     0  0
  2 25  1  0     0  0
  3  4  2  0     0  0
  3  5  1  0     0  0
  4  6  1  0     0  0
  5 10  1  0     0  0
  6 10  2  0     0  0
  7 11  1  0     0  0
  7 12  1  0     0  0
  7 26  1  0     0  0
  8  9  1  0     0  0
  8 11  2  0     0  0
  9 12  2  0     0  0
 10 13  1  0     0  0
 11 27  1  0     0  0
 12 25  1  0     0  0
 13 14  1  0     0  0
 13 17  2  0     0  0
 14 15  1  0     0  0
 14 18  2  0     0  0
 15 19  2  0     0  0
 15 20  1  0     0  0
 16 21  2  0     0  0
 16 22  1  0     0  0
 16 26  1  0     0  0
 17 23  1  0     0  0
 18 24  1  0     0  0
 19 21  1  0     0  0
 20 22  2  0     0  0
 23 24  2  0     0  0
 27 28  1  0     0  0
 28 29  1  0     0  0
 29 30  1  0     0  0
M  END
> <standard_type>
pIC50

> <# Confs.>
25

> <canonical_smiles>
OCC1=C(Br)N=C(CCCC)N1CC2=CC=C(C3=CC=CC=C3C4=NN=NN4)C=C2

> <standard_relation>
=

> <Publication_ID>
nan

> <predicted_activity_value>
7.267606240177032

> <actual_activity_value>
7.721246399047171

> <Compound>
3

> <standard_units>
nM

> hash
3515073872214053168

$$$$
3_
XXILIB    08252103443D 0   0.00000     0.00000

 30 33  0     1  0            999 V2000
    5.1422    1.6003   -0.1306 Br  0  0  0  0  0  1           0  0  0
    1.6561    2.9360    1.3255 O   0  0  0  0  0  2           0  0  0
   -5.5648    0.7490    2.9119 N   0  0  0  0  0  3           0  0  0
   -6.0691   -0.3954    3.3528 N   0  0  0  0  0  3           0  0  0
   -4.5396    1.0158    3.7321 N   0  0  0  0  0  3           0  0  0
   -5.3721   -0.8551    4.4460 N   0  0  0  0  0  3           0  0  0
    1.4522   -0.0000    0.0000 N   0  0  0  0  0  3           0  0  0
    3.5408   -0.7602   -0.0401 N   0  0  0  0  0  3           0  0  0
    3.5408    0.6060   -0.0614 C   0  0  0  0  0  4           0  0  0
   -4.4209    0.0297    4.6735 C   0  0  0  0  0  4           0  0  0
    2.2714   -1.1136    0.0000 C   0  0  0  0  0  4           0  0  0
    2.2609    1.1201   -0.0296 C   0  0  0  0  0  4           0  0  0
   -3.4185    0.0136    5.7109 C   0  0  0  0  0  4           0  0  0
   -2.0364    0.0012    5.4141 C   0  0  0  0  0  4           0  0  0
   -1.5275    0.0005    4.0481 C   0  0  0  0  0  4           0  0  0
   -0.5412   -0.0000    1.3973 C   0  0  0  0  0  4           0  0  0
   -3.8468   -0.0002    7.0486 C   0  0  0  0  0  4           0  0  0
   -1.1213   -0.0169    6.4844 C   0  0  0  0  0  4           0  0  0
   -1.2884   -1.2046    3.3712 C   0  0  0  0  0  4           0  0  0
   -1.2624    1.2052    3.3807 C   0  0  0  0  0  4           0  0  0
   -0.7987   -1.2048    2.0620 C   0  0  0  0  0  4           0  0  0
   -0.7726    1.2049    2.0716 C   0  0  0  0  0  4           0  0  0
   -2.9216   -0.0183    8.0909 C   0  0  0  0  0  4           0  0  0
   -1.5597   -0.0252    7.8095 C   0  0  0  0  0  4           0  0  0
    1.7667    2.5135   -0.0268 C   0  0  0  0  0  4           0  0  0
    0.0000    0.0000   -0.0000 C   0  0  0  0  0  4           0  0  0
    1.7906   -2.5220    0.0467 C   0  0  0  0  0  4           0  0  0
    2.5287   -3.3968   -0.9602 C   0  0  0  0  0  4           0  0  0
    2.0834   -4.8599   -0.9659 C   0  0  0  0  0  4           0  0  0
    2.8396   -5.7037   -1.9814 C   0  0  0  0  0  4           0  0  0
  1  9  1  0     0  0
  2 25  1  0     0  0
  3  4  2  0     0  0
  3  5  1  0     0  0
  4  6  1  0     0  0
  5 10  1  0     0  0
  6 10  2  0     0  0
  7 11  1  0     0  0
  7 12  1  0     0  0
  7 26  1  0     0  0
  8  9  1  0     0  0
  8 11  2  0     0  0
  9 12  2  0     0  0
 10 13  1  0     0  0
 11 27  1  0     0  0
 12 25  1  0     0  0
 13 14  1  0     0  0
 13 17  2  0     0  0
 14 15  1  0     0  0
 14 18  2  0     0  0
 15 19  2  0     0  0
 15 20  1  0     0  0
 16 21  2  0     0  0
 16 22  1  0     0  0
 16 26  1  0     0  0
 17 23  1  0     0  0
 18 24  1  0     0  0
 19 21  1  0     0  0
 20 22  2  0     0  0
 23 24  2  0     0  0
 27 28  1  0     0  0
 28 29  1  0     0  0
 29 30  1  0     0  0
M  END
> <standard_type>
pIC50

> <# Confs.>
25

> <canonical_smiles>
OCC1=C(Br)N=C(CCCC)N1CC2=CC=C(C3=CC=CC=C3C4=NN=NN4)C=C2

> <standard_relation>
=

> <Publication_ID>
nan

> <predicted_activity_value>
7.267606240177032

> <actual_activity_value>
7.721246399047171

> <Compound>
3

> <standard_units>
nM

> hash
3515073872214053168

$$$$
3_
XXILIB    08252103443D 0   0.00000     0.00000

 30 33  0     1  0            999 V2000
    5.1422    1.6003   -0.1306 Br  0  0  0  0  0  1           0  0  0
    1.6561    2.9360    1.3255 O   0  0  0  0  0  2           0  0  0
   -5.5648    0.7490    2.9119 N   0  0  0  0  0  3           0  0  0
   -6.0691   -0.3954    3.3528 N   0  0  0  0  0  3           0  0  0
   -4.5396    1.0158    3.7321 N   0  0  0  0  0  3           0  0  0
   -5.3721   -0.8551    4.4460 N   0  0  0  0  0  3           0  0  0
    1.4522   -0.0000    0.0000 N   0  0  0  0  0  3           0  0  0
    3.5408   -0.7602   -0.0401 N   0  0  0  0  0  3           0  0  0
    3.5408    0.6060   -0.0614 C   0  0  0  0  0  4           0  0  0
   -4.4209    0.0297    4.6735 C   0  0  0  0  0  4           0  0  0
    2.2714   -1.1136    0.0000 C   0  0  0  0  0  4           0  0  0
    2.2609    1.1201   -0.0296 C   0  0  0  0  0  4           0  0  0
   -3.4185    0.0136    5.7109 C   0  0  0  0  0  4           0  0  0
   -2.0364    0.0012    5.4141 C   0  0  0  0  0  4           0  0  0
   -1.5275    0.0005    4.0481 C   0  0  0  0  0  4           0  0  0
   -0.5412   -0.0000    1.3973 C   0  0  0  0  0  4           0  0  0
   -3.8468   -0.0002    7.0486 C   0  0  0  0  0  4           0  0  0
   -1.1213   -0.0169    6.4844 C   0  0  0  0  0  4           0  0  0
   -1.2884   -1.2046    3.3712 C   0  0  0  0  0  4           0  0  0
   -1.2624    1.2052    3.3807 C   0  0  0  0  0  4           0  0  0
   -0.7987   -1.2048    2.0620 C   0  0  0  0  0  4           0  0  0
   -0.7726    1.2049    2.0716 C   0  0  0  0  0  4           0  0  0
   -2.9216   -0.0183    8.0909 C   0  0  0  0  0  4           0  0  0
   -1.5597   -0.0252    7.8095 C   0  0  0  0  0  4           0  0  0
    1.7667    2.5135   -0.0268 C   0  0  0  0  0  4           0  0  0
    0.0000    0.0000   -0.0000 C   0  0  0  0  0  4           0  0  0
    1.7906   -2.5220    0.0467 C   0  0  0  0  0  4           0  0  0
    2.5287   -3.3968   -0.9602 C   0  0  0  0  0  4           0  0  0
    2.3731   -2.9484   -2.4141 C   0  0  0  0  0  4           0  0  0
    3.1216   -3.8424   -3.3915 C   0  0  0  0  0  4           0  0  0
  1  9  1  0     0  0
  2 25  1  0     0  0
  3  4  2  0     0  0
  3  5  1  0     0  0
  4  6  1  0     0  0
  5 10  1  0     0  0
  6 10  2  0     0  0
  7 11  1  0     0  0
  7 12  1  0     0  0
  7 26  1  0     0  0
  8  9  1  0     0  0
  8 11  2  0     0  0
  9 12  2  0     0  0
 10 13  1  0     0  0
 11 27  1  0     0  0
 12 25  1  0     0  0
 13 14  1  0     0  0
 13 17  2  0     0  0
 14 15  1  0     0  0
 14 18  2  0     0  0
 15 19  2  0     0  0
 15 20  1  0     0  0
 16 21  2  0     0  0
 16 22  1  0     0  0
 16 26  1  0     0  0
 17 23  1  0     0  0
 18 24  1  0     0  0
 19 21  1  0     0  0
 20 22  2  0     0  0
 23 24  2  0     0  0
 27 28  1  0     0  0
 28 29  1  0     0  0
 29 30  1  0     0  0
M  END
> <standard_type>
pIC50

> <# Confs.>
25

> <canonical_smiles>
OCC1=C(Br)N=C(CCCC)N1CC2=CC=C(C3=CC=CC=C3C4=NN=NN4)C=C2

> <standard_relation>
=

> <Publication_ID>
nan

> <predicted_activity_value>
7.267606240177032

> <actual_activity_value>
7.721246399047171

> <Compound>
3

> <standard_units>
nM

> hash
3515073872214053168

$$$$
3_
XXILIB    08252103443D 0   0.00000     0.00000

 30 33  0     1  0            999 V2000
    5.1422   -1.6003    0.1306 Br  0  0  0  0  0  1           0  0  0
    1.6561   -2.9360   -1.3255 O   0  0  0  0  0  2           0  0  0
   -3.2863    3.9132    3.6741 N   0  0  0  0  0  3           0  0  0
   -2.5390    4.4970    4.6010 N   0  0  0  0  0  3           0  0  0
   -3.4154    2.6433    4.0809 N   0  0  0  0  0  3           0  0  0
   -2.1932    3.6068    5.5911 N   0  0  0  0  0  3           0  0  0
    1.4522    0.0000    0.0000 N   0  0  0  0  0  3           0  0  0
    3.5408    0.7602    0.0401 N   0  0  0  0  0  3           0  0  0
    3.5408   -0.6060    0.0614 C   0  0  0  0  0  4           0  0  0
   -2.7447    2.4558    5.2590 C   0  0  0  0  0  4           0  0  0
    2.2714    1.1136    0.0000 C   0  0  0  0  0  4           0  0  0
    2.2609   -1.1201    0.0296 C   0  0  0  0  0  4           0  0  0
   -2.6808    1.2000    5.9661 C   0  0  0  0  0  4           0  0  0
   -2.1274    0.0392    5.3788 C   0  0  0  0  0  4           0  0  0
   -1.5880    0.0263    4.0246 C   0  0  0  0  0  4           0  0  0
   -0.5412    0.0000    1.3973 C   0  0  0  0  0  4           0  0  0
   -3.1973    1.1452    7.2712 C   0  0  0  0  0  4           0  0  0
   -2.1046   -1.1486    6.1350 C   0  0  0  0  0  4           0  0  0
   -0.5201    0.8633    3.6688 C   0  0  0  0  0  4           0  0  0
   -2.1271   -0.8211    3.0458 C   0  0  0  0  0  4           0  0  0
   -0.0043    0.8520    2.3697 C   0  0  0  0  0  4           0  0  0
   -1.6113   -0.8323    1.7468 C   0  0  0  0  0  4           0  0  0
   -3.1636   -0.0426    7.9997 C   0  0  0  0  0  4           0  0  0
   -2.6164   -1.1886    7.4329 C   0  0  0  0  0  4           0  0  0
    1.7667   -2.5135    0.0268 C   0  0  0  0  0  4           0  0  0
    0.0000    0.0000   -0.0000 C   0  0  0  0  0  4           0  0  0
    1.7906    2.5220   -0.0467 C   0  0  0  0  0  4           0  0  0
    2.5905    3.3513   -1.0450 C   0  0  0  0  0  4           0  0  0
    2.5240    2.8373   -2.4839 C   0  0  0  0  0  4           0  0  0
    3.3326    3.6873   -3.4528 C   0  0  0  0  0  4           0  0  0
  1  9  1  0     0  0
  2 25  1  0     0  0
  3  4  2  0     0  0
  3  5  1  0     0  0
  4  6  1  0     0  0
  5 10  1  0     0  0
  6 10  2  0     0  0
  7 11  1  0     0  0
  7 12  1  0     0  0
  7 26  1  0     0  0
  8  9  1  0     0  0
  8 11  2  0     0  0
  9 12  2  0     0  0
 10 13  1  0     0  0
 11 27  1  0     0  0
 12 25  1  0     0  0
 13 14  1  0     0  0
 13 17  2  0     0  0
 14 15  1  0     0  0
 14 18  2  0     0  0
 15 19  2  0     0  0
 15 20  1  0     0  0
 16 21  2  0     0  0
 16 22  1  0     0  0
 16 26  1  0     0  0
 17 23  1  0     0  0
 18 24  1  0     0  0
 19 21  1  0     0  0
 20 22  2  0     0  0
 23 24  2  0     0  0
 27 28  1  0     0  0
 28 29  1  0     0  0
 29 30  1  0     0  0
M  END
> <standard_type>
pIC50

> <# Confs.>
25

> <canonical_smiles>
OCC1=C(Br)N=C(CCCC)N1CC2=CC=C(C3=CC=CC=C3C4=NN=NN4)C=C2

> <standard_relation>
=

> <Publication_ID>
nan

> <predicted_activity_value>
7.267606240177032

> <actual_activity_value>
7.721246399047171

> <Compound>
3

> <standard_units>
nM

> hash
3515073872214053168

$$$$
3_
XXILIB    08252103443D 0   0.00000     0.00000

 30 33  0     1  0            999 V2000
    5.1422   -1.6003    0.1306 Br  0  0  0  0  0  1           0  0  0
    1.6561   -2.9360   -1.3255 O   0  0  0  0  0  2           0  0  0
   -3.2863    3.9132    3.6741 N   0  0  0  0  0  3           0  0  0
   -2.5390    4.4970    4.6010 N   0  0  0  0  0  3           0  0  0
   -3.4154    2.6433    4.0809 N   0  0  0  0  0  3           0  0  0
   -2.1932    3.6068    5.5911 N   0  0  0  0  0  3           0  0  0
    1.4522    0.0000    0.0000 N   0  0  0  0  0  3           0  0  0
    3.5408    0.7602    0.0401 N   0  0  0  0  0  3           0  0  0
    3.5408   -0.6060    0.0614 C   0  0  0  0  0  4           0  0  0
   -2.7447    2.4558    5.2590 C   0  0  0  0  0  4           0  0  0
    2.2714    1.1136    0.0000 C   0  0  0  0  0  4           0  0  0
    2.2609   -1.1201    0.0296 C   0  0  0  0  0  4           0  0  0
   -2.6808    1.2000    5.9661 C   0  0  0  0  0  4           0  0  0
   -2.1274    0.0392    5.3788 C   0  0  0  0  0  4           0  0  0
   -1.5880    0.0263    4.0246 C   0  0  0  0  0  4           0  0  0
   -0.5412    0.0000    1.3973 C   0  0  0  0  0  4           0  0  0
   -3.1973    1.1452    7.2712 C   0  0  0  0  0  4           0  0  0
   -2.1046   -1.1486    6.1350 C   0  0  0  0  0  4           0  0  0
   -0.5201    0.8633    3.6688 C   0  0  0  0  0  4           0  0  0
   -2.1271   -0.8211    3.0458 C   0  0  0  0  0  4           0  0  0
   -0.0043    0.8520    2.3697 C   0  0  0  0  0  4           0  0  0
   -1.6113   -0.8323    1.7468 C   0  0  0  0  0  4           0  0  0
   -3.1636   -0.0426    7.9997 C   0  0  0  0  0  4           0  0  0
   -2.6164   -1.1886    7.4329 C   0  0  0  0  0  4           0  0  0
    1.7667   -2.5135    0.0268 C   0  0  0  0  0  4           0  0  0
    0.0000    0.0000   -0.0000 C   0  0  0  0  0  4           0  0  0
    1.7906    2.5220   -0.0467 C   0  0  0  0  0  4           0  0  0
    2.5287    3.3968    0.9602 C   0  0  0  0  0  4           0  0  0
    2.0834    4.8599    0.9659 C   0  0  0  0  0  4           0  0  0
    2.8396    5.7037    1.9814 C   0  0  0  0  0  4           0  0  0
  1  9  1  0     0  0
  2 25  1  0     0  0
  3  4  2  0     0  0
  3  5  1  0     0  0
  4  6  1  0     0  0
  5 10  1  0     0  0
  6 10  2  0     0  0
  7 11  1  0     0  0
  7 12  1  0     0  0
  7 26  1  0     0  0
  8  9  1  0     0  0
  8 11  2  0     0  0
  9 12  2  0     0  0
 10 13  1  0     0  0
 11 27  1  0     0  0
 12 25  1  0     0  0
 13 14  1  0     0  0
 13 17  2  0     0  0
 14 15  1  0     0  0
 14 18  2  0     0  0
 15 19  2  0     0  0
 15 20  1  0     0  0
 16 21  2  0     0  0
 16 22  1  0     0  0
 16 26  1  0     0  0
 17 23  1  0     0  0
 18 24  1  0     0  0
 19 21  1  0     0  0
 20 22  2  0     0  0
 23 24  2  0     0  0
 27 28  1  0     0  0
 28 29  1  0     0  0
 29 30  1  0     0  0
M  END
> <standard_type>
pIC50

> <# Confs.>
25

> <canonical_smiles>
OCC1=C(Br)N=C(CCCC)N1CC2=CC=C(C3=CC=CC=C3C4=NN=NN4)C=C2

> <standard_relation>
=

> <Publication_ID>
nan

> <predicted_activity_value>
7.267606240177032

> <actual_activity_value>
7.721246399047171

> <Compound>
3

> <standard_units>
nM

> hash
3515073872214053168

$$$$
3_
XXILIB    08252103443D 0   0.00000     0.00000

 30 33  0     1  0            999 V2000
    5.1422    1.6003   -0.1306 Br  0  0  0  0  0  1           0  0  0
    1.6561    2.9360    1.3255 O   0  0  0  0  0  2           0  0  0
    2.0595   -1.5386    5.7448 N   0  0  0  0  0  3           0  0  0
    1.5495   -2.6808    6.1847 N   0  0  0  0  0  3           0  0  0
    1.0508   -0.6594    5.8109 N   0  0  0  0  0  3           0  0  0
    0.2258   -2.5322    6.5281 N   0  0  0  0  0  3           0  0  0
    1.4522    0.0000    0.0000 N   0  0  0  0  0  3           0  0  0
    3.5408   -0.7602   -0.0401 N   0  0  0  0  0  3           0  0  0
    3.5408    0.6060   -0.0614 C   0  0  0  0  0  4           0  0  0
   -0.0750   -1.2699    6.2931 C   0  0  0  0  0  4           0  0  0
    2.2714   -1.1136    0.0000 C   0  0  0  0  0  4           0  0  0
    2.2609    1.1201   -0.0296 C   0  0  0  0  0  4           0  0  0
   -1.3406   -0.6047    6.4852 C   0  0  0  0  0  4           0  0  0
   -2.0364    0.0012    5.4141 C   0  0  0  0  0  4           0  0  0
   -1.5275    0.0005    4.0481 C   0  0  0  0  0  4           0  0  0
   -0.5412    0.0000    1.3973 C   0  0  0  0  0  4           0  0  0
   -1.8769   -0.5587    7.7827 C   0  0  0  0  0  4           0  0  0
   -3.2654    0.6330    5.6853 C   0  0  0  0  0  4           0  0  0
   -1.2884   -1.2046    3.3712 C   0  0  0  0  0  4           0  0  0
   -1.2624    1.2052    3.3807 C   0  0  0  0  0  4           0  0  0
   -0.7987   -1.2048    2.0620 C   0  0  0  0  0  4           0  0  0
   -0.7726    1.2049    2.0716 C   0  0  0  0  0  4           0  0  0
   -3.0953    0.0729    8.0261 C   0  0  0  0  0  4           0  0  0
   -3.7901    0.6672    6.9782 C   0  0  0  0  0  4           0  0  0
    1.7667    2.5135   -0.0268 C   0  0  0  0  0  4           0  0  0
    0.0000    0.0000    0.0000 C   0  0  0  0  0  4           0  0  0
    1.7906   -2.5220    0.0467 C   0  0  0  0  0  4           0  0  0
    2.9527   -3.5085    0.0333 C   0  0  0  0  0  4           0  0  0
    2.5296   -4.9775    0.0796 C   0  0  0  0  0  4           0  0  0
    1.7302   -5.3231    1.3272 C   0  0  0  0  0  4           0  0  0
  1  9  1  0     0  0
  2 25  1  0     0  0
  3  4  2  0     0  0
  3  5  1  0     0  0
  4  6  1  0     0  0
  5 10  1  0     0  0
  6 10  2  0     0  0
  7 11  1  0     0  0
  7 12  1  0     0  0
  7 26  1  0     0  0
  8  9  1  0     0  0
  8 11  2  0     0  0
  9 12  2  0     0  0
 10 13  1  0     0  0
 11 27  1  0     0  0
 12 25  1  0     0  0
 13 14  1  0     0  0
 13 17  2  0     0  0
 14 15  1  0     0  0
 14 18  2  0     0  0
 15 19  2  0     0  0
 15 20  1  0     0  0
 16 21  2  0     0  0
 16 22  1  0     0  0
 16 26  1  0     0  0
 17 23  1  0     0  0
 18 24  1  0     0  0
 19 21  1  0     0  0
 20 22  2  0     0  0
 23 24  2  0     0  0
 27 28  1  0     0  0
 28 29  1  0     0  0
 29 30  1  0     0  0
M  END
> <standard_type>
pIC50

> <# Confs.>
25

> <canonical_smiles>
OCC1=C(Br)N=C(CCCC)N1CC2=CC=C(C3=CC=CC=C3C4=NN=NN4)C=C2

> <standard_relation>
=

> <Publication_ID>
nan

> <predicted_activity_value>
7.267606240177032

> <actual_activity_value>
7.721246399047171

> <Compound>
3

> <standard_units>
nM

> hash
3515073872214053168

$$$$
3_
XXILIB    08252103443D 0   0.00000     0.00000

 30 33  0     1  0            999 V2000
    5.1422    1.6003   -0.1306 Br  0  0  0  0  0  1           0  0  0
    1.6561    2.9360    1.3255 O   0  0  0  0  0  2           0  0  0
   -5.3910   -1.4412    2.9777 N   0  0  0  0  0  3           0  0  0
   -5.3189   -2.5916    3.6333 N   0  0  0  0  0  3           0  0  0
   -4.6472   -0.5866    3.6928 N   0  0  0  0  0  3           0  0  0
   -4.5362   -2.4722    4.7581 N   0  0  0  0  0  3           0  0  0
    1.4522    0.0000    0.0000 N   0  0  0  0  0  3           0  0  0
    3.5408   -0.7602   -0.0401 N   0  0  0  0  0  3           0  0  0
    3.5408    0.6060   -0.0614 C   0  0  0  0  0  4           0  0  0
   -4.1215   -1.2207    4.7857 C   0  0  0  0  0  4           0  0  0
    2.2714   -1.1136    0.0000 C   0  0  0  0  0  4           0  0  0
    2.2609    1.1201   -0.0296 C   0  0  0  0  0  4           0  0  0
   -3.2747   -0.5838    5.7647 C   0  0  0  0  0  4           0  0  0
   -2.0364    0.0012    5.4141 C   0  0  0  0  0  4           0  0  0
   -1.5275    0.0005    4.0481 C   0  0  0  0  0  4           0  0  0
   -0.5412    0.0000    1.3973 C   0  0  0  0  0  4           0  0  0
   -3.7044   -0.5629    7.1019 C   0  0  0  0  0  4           0  0  0
   -1.2671    0.6012    6.4297 C   0  0  0  0  0  4           0  0  0
   -1.2884   -1.2046    3.3712 C   0  0  0  0  0  4           0  0  0
   -1.2624    1.2052    3.3807 C   0  0  0  0  0  4           0  0  0
   -0.7987   -1.2048    2.0620 C   0  0  0  0  0  4           0  0  0
   -0.7726    1.2049    2.0716 C   0  0  0  0  0  4           0  0  0
   -2.9250    0.0369    8.0896 C   0  0  0  0  0  4           0  0  0
   -1.7078    0.6199    7.7539 C   0  0  0  0  0  4           0  0  0
    1.7667    2.5135   -0.0268 C   0  0  0  0  0  4           0  0  0
    0.0000   -0.0000    0.0000 C   0  0  0  0  0  4           0  0  0
    1.7906   -2.5220    0.0467 C   0  0  0  0  0  4           0  0  0
    2.9527   -3.5085    0.0333 C   0  0  0  0  0  4           0  0  0
    2.5296   -4.9775    0.0796 C   0  0  0  0  0  4           0  0  0
    1.7302   -5.3231    1.3272 C   0  0  0  0  0  4           0  0  0
  1  9  1  0     0  0
  2 25  1  0     0  0
  3  4  2  0     0  0
  3  5  1  0     0  0
  4  6  1  0     0  0
  5 10  1  0     0  0
  6 10  2  0     0  0
  7 11  1  0     0  0
  7 12  1  0     0  0
  7 26  1  0     0  0
  8  9  1  0     0  0
  8 11  2  0     0  0
  9 12  2  0     0  0
 10 13  1  0     0  0
 11 27  1  0     0  0
 12 25  1  0     0  0
 13 14  1  0     0  0
 13 17  2  0     0  0
 14 15  1  0     0  0
 14 18  2  0     0  0
 15 19  2  0     0  0
 15 20  1  0     0  0
 16 21  2  0     0  0
 16 22  1  0     0  0
 16 26  1  0     0  0
 17 23  1  0     0  0
 18 24  1  0     0  0
 19 21  1  0     0  0
 20 22  2  0     0  0
 23 24  2  0     0  0
 27 28  1  0     0  0
 28 29  1  0     0  0
 29 30  1  0     0  0
M  END
> <standard_type>
pIC50

> <# Confs.>
25

> <canonical_smiles>
OCC1=C(Br)N=C(CCCC)N1CC2=CC=C(C3=CC=CC=C3C4=NN=NN4)C=C2

> <standard_relation>
=

> <Publication_ID>
nan

> <predicted_activity_value>
7.267606240177032

> <actual_activity_value>
7.721246399047171

> <Compound>
3

> <standard_units>
nM

> hash
3515073872214053168

$$$$
3_
XXILIB    08252103443D 0   0.00000     0.00000

 30 33  0     1  0            999 V2000
    5.1422   -1.6003    0.1306 Br  0  0  0  0  0  1           0  0  0
    0.7450   -2.6136   -0.9558 O   0  0  0  0  0  2           0  0  0
   -5.3910   -1.4412    2.9777 N   0  0  0  0  0  3           0  0  0
   -5.3189   -2.5916    3.6333 N   0  0  0  0  0  3           0  0  0
   -4.6472   -0.5866    3.6928 N   0  0  0  0  0  3           0  0  0
   -4.5362   -2.4722    4.7581 N   0  0  0  0  0  3           0  0  0
    1.4522    0.0000    0.0000 N   0  0  0  0  0  3           0  0  0
    3.5408    0.7602    0.0401 N   0  0  0  0  0  3           0  0  0
    3.5408   -0.6060    0.0614 C   0  0  0  0  0  4           0  0  0
   -4.1215   -1.2207    4.7857 C   0  0  0  0  0  4           0  0  0
    2.2714    1.1136    0.0000 C   0  0  0  0  0  4           0  0  0
    2.2609   -1.1201    0.0296 C   0  0  0  0  0  4           0  0  0
   -3.2747   -0.5838    5.7647 C   0  0  0  0  0  4           0  0  0
   -2.0364    0.0012    5.4141 C   0  0  0  0  0  4           0  0  0
   -1.5275    0.0005    4.0481 C   0  0  0  0  0  4           0  0  0
   -0.5412    0.0000    1.3973 C   0  0  0  0  0  4           0  0  0
   -3.7044   -0.5629    7.1019 C   0  0  0  0  0  4           0  0  0
   -1.2671    0.6012    6.4297 C   0  0  0  0  0  4           0  0  0
   -1.2884   -1.2046    3.3712 C   0  0  0  0  0  4           0  0  0
   -1.2624    1.2052    3.3807 C   0  0  0  0  0  4           0  0  0
   -0.7987   -1.2048    2.0620 C   0  0  0  0  0  4           0  0  0
   -0.7726    1.2049    2.0716 C   0  0  0  0  0  4           0  0  0
   -2.9250    0.0369    8.0896 C   0  0  0  0  0  4           0  0  0
   -1.7078    0.6199    7.7539 C   0  0  0  0  0  4           0  0  0
    1.7667   -2.5135    0.0268 C   0  0  0  0  0  4           0  0  0
    0.0000   -0.0000    0.0000 C   0  0  0  0  0  4           0  0  0
    1.7906    2.5220   -0.0467 C   0  0  0  0  0  4           0  0  0
    2.5905    3.3513   -1.0450 C   0  0  0  0  0  4           0  0  0
    2.5240    2.8373   -2.4839 C   0  0  0  0  0  4           0  0  0
    3.3326    3.6873   -3.4528 C   0  0  0  0  0  4           0  0  0
  1  9  1  0     0  0
  2 25  1  0     0  0
  3  4  2  0     0  0
  3  5  1  0     0  0
  4  6  1  0     0  0
  5 10  1  0     0  0
  6 10  2  0     0  0
  7 11  1  0     0  0
  7 12  1  0     0  0
  7 26  1  0     0  0
  8  9  1  0     0  0
  8 11  2  0     0  0
  9 12  2  0     0  0
 10 13  1  0     0  0
 11 27  1  0     0  0
 12 25  1  0     0  0
 13 14  1  0     0  0
 13 17  2  0     0  0
 14 15  1  0     0  0
 14 18  2  0     0  0
 15 19  2  0     0  0
 15 20  1  0     0  0
 16 21  2  0     0  0
 16 22  1  0     0  0
 16 26  1  0     0  0
 17 23  1  0     0  0
 18 24  1  0     0  0
 19 21  1  0     0  0
 20 22  2  0     0  0
 23 24  2  0     0  0
 27 28  1  0     0  0
 28 29  1  0     0  0
 29 30  1  0     0  0
M  END
> <standard_type>
pIC50

> <# Confs.>
25

> <canonical_smiles>
OCC1=C(Br)N=C(CCCC)N1CC2=CC=C(C3=CC=CC=C3C4=NN=NN4)C=C2

> <standard_relation>
=

> <Publication_ID>
nan

> <predicted_activity_value>
7.267606240177032

> <actual_activity_value>
7.721246399047171

> <Compound>
3

> <standard_units>
nM

> hash
3515073872214053168

$$$$
3_
XXILIB    08252103443D 0   0.00000     0.00000

 30 33  0     1  0            999 V2000
    5.1422   -1.6003    0.1306 Br  0  0  0  0  0  1           0  0  0
    1.6561   -2.9360   -1.3255 O   0  0  0  0  0  2           0  0  0
    1.4569   -2.4805    5.6242 N   0  0  0  0  0  3           0  0  0
    0.6696   -3.4950    5.9551 N   0  0  0  0  0  3           0  0  0
    0.6909   -1.3892    5.7548 N   0  0  0  0  0  3           0  0  0
   -0.5890   -3.0549    6.2935 N   0  0  0  0  0  3           0  0  0
    1.4522   -0.0000   -0.0000 N   0  0  0  0  0  3           0  0  0
    3.5408    0.7602    0.0401 N   0  0  0  0  0  3           0  0  0
    3.5408   -0.6060    0.0614 C   0  0  0  0  0  4           0  0  0
   -0.5653   -1.7424    6.1670 C   0  0  0  0  0  4           0  0  0
    2.2714    1.1136    0.0000 C   0  0  0  0  0  4           0  0  0
    2.2609   -1.1201    0.0296 C   0  0  0  0  0  4           0  0  0
   -1.6367   -0.8051    6.4011 C   0  0  0  0  0  4           0  0  0
   -2.1274    0.0392    5.3788 C   0  0  0  0  0  4           0  0  0
   -1.5880    0.0263    4.0246 C   0  0  0  0  0  4           0  0  0
   -0.5412    0.0000    1.3973 C   0  0  0  0  0  4           0  0  0
   -2.1893   -0.7360    7.6906 C   0  0  0  0  0  4           0  0  0
   -3.1741    0.9288    5.6892 C   0  0  0  0  0  4           0  0  0
   -0.5201    0.8633    3.6688 C   0  0  0  0  0  4           0  0  0
   -2.1271   -0.8211    3.0458 C   0  0  0  0  0  4           0  0  0
   -0.0043    0.8520    2.3697 C   0  0  0  0  0  4           0  0  0
   -1.6113   -0.8323    1.7468 C   0  0  0  0  0  4           0  0  0
   -3.2249    0.1531    7.9734 C   0  0  0  0  0  4           0  0  0
   -3.7182    0.9840    6.9733 C   0  0  0  0  0  4           0  0  0
    1.7667   -2.5135    0.0268 C   0  0  0  0  0  4           0  0  0
    0.0000    0.0000    0.0000 C   0  0  0  0  0  4           0  0  0
    1.7906    2.5220   -0.0467 C   0  0  0  0  0  4           0  0  0
    1.6542    3.0171   -1.4822 C   0  0  0  0  0  4           0  0  0
    1.1632    4.4604   -1.6043 C   0  0  0  0  0  4           0  0  0
    1.0386    4.9218   -3.0488 C   0  0  0  0  0  4           0  0  0
  1  9  1  0     0  0
  2 25  1  0     0  0
  3  4  2  0     0  0
  3  5  1  0     0  0
  4  6  1  0     0  0
  5 10  1  0     0  0
  6 10  2  0     0  0
  7 11  1  0     0  0
  7 12  1  0     0  0
  7 26  1  0     0  0
  8  9  1  0     0  0
  8 11  2  0     0  0
  9 12  2  0     0  0
 10 13  1  0     0  0
 11 27  1  0     0  0
 12 25  1  0     0  0
 13 14  1  0     0  0
 13 17  2  0     0  0
 14 15  1  0     0  0
 14 18  2  0     0  0
 15 19  2  0     0  0
 15 20  1  0     0  0
 16 21  2  0     0  0
 16 22  1  0     0  0
 16 26  1  0     0  0
 17 23  1  0     0  0
 18 24  1  0     0  0
 19 21  1  0     0  0
 20 22  2  0     0  0
 23 24  2  0     0  0
 27 28  1  0     0  0
 28 29  1  0     0  0
 29 30  1  0     0  0
M  END
> <standard_type>
pIC50

> <# Confs.>
25

> <canonical_smiles>
OCC1=C(Br)N=C(CCCC)N1CC2=CC=C(C3=CC=CC=C3C4=NN=NN4)C=C2

> <standard_relation>
=

> <Publication_ID>
nan

> <predicted_activity_value>
7.267606240177032

> <actual_activity_value>
7.721246399047171

> <Compound>
3

> <standard_units>
nM

> hash
3515073872214053168

$$$$
3_
XXILIB    08252103443D 0   0.00000     0.00000

 30 33  0     1  0            999 V2000
    5.1422   -1.6003    0.1306 Br  0  0  0  0  0  1           0  0  0
    1.6561   -2.9360   -1.3255 O   0  0  0  0  0  2           0  0  0
    1.8494   -1.7750    5.7823 N   0  0  0  0  0  3           0  0  0
    2.1962   -0.7466    6.5443 N   0  0  0  0  0  3           0  0  0
    0.5146   -1.7062    5.6922 N   0  0  0  0  0  3           0  0  0
    1.0916   -0.0276    6.9380 N   0  0  0  0  0  3           0  0  0
    1.4522   -0.0000   -0.0000 N   0  0  0  0  0  3           0  0  0
    3.5408    0.7602    0.0401 N   0  0  0  0  0  3           0  0  0
    3.5408   -0.6060    0.0614 C   0  0  0  0  0  4           0  0  0
    0.0496   -0.6321    6.4013 C   0  0  0  0  0  4           0  0  0
    2.2714    1.1136    0.0000 C   0  0  0  0  0  4           0  0  0
    2.2609   -1.1201    0.0296 C   0  0  0  0  0  4           0  0  0
   -1.3434   -0.2740    6.5128 C   0  0  0  0  0  4           0  0  0
   -2.1274    0.0392    5.3788 C   0  0  0  0  0  4           0  0  0
   -1.5880    0.0263    4.0246 C   0  0  0  0  0  4           0  0  0
   -0.5412   -0.0000    1.3973 C   0  0  0  0  0  4           0  0  0
   -1.9180   -0.2306    7.7939 C   0  0  0  0  0  4           0  0  0
   -3.4796    0.3816    5.5727 C   0  0  0  0  0  4           0  0  0
   -0.5201    0.8633    3.6688 C   0  0  0  0  0  4           0  0  0
   -2.1271   -0.8211    3.0458 C   0  0  0  0  0  4           0  0  0
   -0.0043    0.8520    2.3697 C   0  0  0  0  0  4           0  0  0
   -1.6113   -0.8323    1.7468 C   0  0  0  0  0  4           0  0  0
   -3.2589    0.1114    7.9603 C   0  0  0  0  0  4           0  0  0
   -4.0399    0.4160    6.8506 C   0  0  0  0  0  4           0  0  0
    1.7667   -2.5135    0.0268 C   0  0  0  0  0  4           0  0  0
    0.0000    0.0000    0.0000 C   0  0  0  0  0  4           0  0  0
    1.7906    2.5220   -0.0467 C   0  0  0  0  0  4           0  0  0
    1.6542    3.0171   -1.4822 C   0  0  0  0  0  4           0  0  0
    1.1632    4.4604   -1.6043 C   0  0  0  0  0  4           0  0  0
    1.0386    4.9218   -3.0488 C   0  0  0  0  0  4           0  0  0
  1  9  1  0     0  0
  2 25  1  0     0  0
  3  4  2  0     0  0
  3  5  1  0     0  0
  4  6  1  0     0  0
  5 10  1  0     0  0
  6 10  2  0     0  0
  7 11  1  0     0  0
  7 12  1  0     0  0
  7 26  1  0     0  0
  8  9  1  0     0  0
  8 11  2  0     0  0
  9 12  2  0     0  0
 10 13  1  0     0  0
 11 27  1  0     0  0
 12 25  1  0     0  0
 13 14  1  0     0  0
 13 17  2  0     0  0
 14 15  1  0     0  0
 14 18  2  0     0  0
 15 19  2  0     0  0
 15 20  1  0     0  0
 16 21  2  0     0  0
 16 22  1  0     0  0
 16 26  1  0     0  0
 17 23  1  0     0  0
 18 24  1  0     0  0
 19 21  1  0     0  0
 20 22  2  0     0  0
 23 24  2  0     0  0
 27 28  1  0     0  0
 28 29  1  0     0  0
 29 30  1  0     0  0
M  END
> <standard_type>
pIC50

> <# Confs.>
25

> <canonical_smiles>
OCC1=C(Br)N=C(CCCC)N1CC2=CC=C(C3=CC=CC=C3C4=NN=NN4)C=C2

> <standard_relation>
=

> <Publication_ID>
nan

> <predicted_activity_value>
7.267606240177032

> <actual_activity_value>
7.721246399047171

> <Compound>
3

> <standard_units>
nM

> hash
3515073872214053168

$$$$
3_
XXILIB    08252103443D 0   0.00000     0.00000

 30 33  0     1  0            999 V2000
    5.1422   -1.6003    0.1306 Br  0  0  0  0  0  1           0  0  0
    0.7450   -2.6136   -0.9558 O   0  0  0  0  0  2           0  0  0
   -5.3910   -1.4412    2.9777 N   0  0  0  0  0  3           0  0  0
   -5.3189   -2.5916    3.6333 N   0  0  0  0  0  3           0  0  0
   -4.6472   -0.5866    3.6928 N   0  0  0  0  0  3           0  0  0
   -4.5362   -2.4722    4.7581 N   0  0  0  0  0  3           0  0  0
    1.4522    0.0000    0.0000 N   0  0  0  0  0  3           0  0  0
    3.5408    0.7602    0.0401 N   0  0  0  0  0  3           0  0  0
    3.5408   -0.6060    0.0614 C   0  0  0  0  0  4           0  0  0
   -4.1215   -1.2207    4.7857 C   0  0  0  0  0  4           0  0  0
    2.2714    1.1136    0.0000 C   0  0  0  0  0  4           0  0  0
    2.2609   -1.1201    0.0296 C   0  0  0  0  0  4           0  0  0
   -3.2747   -0.5838    5.7647 C   0  0  0  0  0  4           0  0  0
   -2.0364    0.0012    5.4141 C   0  0  0  0  0  4           0  0  0
   -1.5275    0.0005    4.0481 C   0  0  0  0  0  4           0  0  0
   -0.5412    0.0000    1.3973 C   0  0  0  0  0  4           0  0  0
   -3.7044   -0.5629    7.1019 C   0  0  0  0  0  4           0  0  0
   -1.2671    0.6012    6.4297 C   0  0  0  0  0  4           0  0  0
   -1.2884   -1.2046    3.3712 C   0  0  0  0  0  4           0  0  0
   -1.2624    1.2052    3.3807 C   0  0  0  0  0  4           0  0  0
   -0.7987   -1.2048    2.0620 C   0  0  0  0  0  4           0  0  0
   -0.7726    1.2049    2.0716 C   0  0  0  0  0  4           0  0  0
   -2.9250    0.0369    8.0896 C   0  0  0  0  0  4           0  0  0
   -1.7078    0.6199    7.7539 C   0  0  0  0  0  4           0  0  0
    1.7667   -2.5135    0.0268 C   0  0  0  0  0  4           0  0  0
    0.0000   -0.0000    0.0000 C   0  0  0  0  0  4           0  0  0
    1.7906    2.5220   -0.0467 C   0  0  0  0  0  4           0  0  0
    2.5905    3.3513   -1.0450 C   0  0  0  0  0  4           0  0  0
    2.1484    4.8120   -1.1443 C   0  0  0  0  0  4           0  0  0
    2.9668    5.6101   -2.1484 C   0  0  0  0  0  4           0  0  0
  1  9  1  0     0  0
  2 25  1  0     0  0
  3  4  2  0     0  0
  3  5  1  0     0  0
  4  6  1  0     0  0
  5 10  1  0     0  0
  6 10  2  0     0  0
  7 11  1  0     0  0
  7 12  1  0     0  0
  7 26  1  0     0  0
  8  9  1  0     0  0
  8 11  2  0     0  0
  9 12  2  0     0  0
 10 13  1  0     0  0
 11 27  1  0     0  0
 12 25  1  0     0  0
 13 14  1  0     0  0
 13 17  2  0     0  0
 14 15  1  0     0  0
 14 18  2  0     0  0
 15 19  2  0     0  0
 15 20  1  0     0  0
 16 21  2  0     0  0
 16 22  1  0     0  0
 16 26  1  0     0  0
 17 23  1  0     0  0
 18 24  1  0     0  0
 19 21  1  0     0  0
 20 22  2  0     0  0
 23 24  2  0     0  0
 27 28  1  0     0  0
 28 29  1  0     0  0
 29 30  1  0     0  0
M  END
> <standard_type>
pIC50

> <# Confs.>
25

> <canonical_smiles>
OCC1=C(Br)N=C(CCCC)N1CC2=CC=C(C3=CC=CC=C3C4=NN=NN4)C=C2

> <standard_relation>
=

> <Publication_ID>
nan

> <predicted_activity_value>
7.267606240177032

> <actual_activity_value>
7.721246399047171

> <Compound>
3

> <standard_units>
nM

> hash
3515073872214053168

$$$$
3_
XXILIB    08252103443D 0   0.00000     0.00000

 30 33  0     1  0            999 V2000
    5.1422    1.6003   -0.1306 Br  0  0  0  0  0  1           0  0  0
    1.6561    2.9360    1.3255 O   0  0  0  0  0  2           0  0  0
    2.2847    0.6445    5.8276 N   0  0  0  0  0  3           0  0  0
    2.3507   -0.5069    6.4821 N   0  0  0  0  0  3           0  0  0
    0.9798    0.9448    5.7837 N   0  0  0  0  0  3           0  0  0
    1.0982   -0.9384    6.8523 N   0  0  0  0  0  3           0  0  0
    1.4522   -0.0000    0.0000 N   0  0  0  0  0  3           0  0  0
    3.5408   -0.7602   -0.0401 N   0  0  0  0  0  3           0  0  0
    3.5408    0.6060   -0.0614 C   0  0  0  0  0  4           0  0  0
    0.2515   -0.0272    6.4141 C   0  0  0  0  0  4           0  0  0
    2.2714   -1.1136    0.0000 C   0  0  0  0  0  4           0  0  0
    2.2609    1.1201   -0.0296 C   0  0  0  0  0  4           0  0  0
   -1.1852   -0.0105    6.5428 C   0  0  0  0  0  4           0  0  0
   -2.0364    0.0012    5.4141 C   0  0  0  0  0  4           0  0  0
   -1.5275    0.0005    4.0481 C   0  0  0  0  0  4           0  0  0
   -0.5412   -0.0000    1.3973 C   0  0  0  0  0  4           0  0  0
   -1.7366    0.0046    7.8347 C   0  0  0  0  0  4           0  0  0
   -3.4287    0.0199    5.6248 C   0  0  0  0  0  4           0  0  0
   -1.2884   -1.2046    3.3712 C   0  0  0  0  0  4           0  0  0
   -1.2624    1.2052    3.3807 C   0  0  0  0  0  4           0  0  0
   -0.7987   -1.2048    2.0620 C   0  0  0  0  0  4           0  0  0
   -0.7726    1.2049    2.0716 C   0  0  0  0  0  4           0  0  0
   -3.1182    0.0232    8.0176 C   0  0  0  0  0  4           0  0  0
   -3.9641    0.0294    6.9137 C   0  0  0  0  0  4           0  0  0
    1.7667    2.5135   -0.0268 C   0  0  0  0  0  4           0  0  0
    0.0000    0.0000    0.0000 C   0  0  0  0  0  4           0  0  0
    1.7906   -2.5220    0.0467 C   0  0  0  0  0  4           0  0  0
    2.5287   -3.3968   -0.9602 C   0  0  0  0  0  4           0  0  0
    2.0834   -4.8599   -0.9659 C   0  0  0  0  0  4           0  0  0
    2.8396   -5.7037   -1.9814 C   0  0  0  0  0  4           0  0  0
  1  9  1  0     0  0
  2 25  1  0     0  0
  3  4  2  0     0  0
  3  5  1  0     0  0
  4  6  1  0     0  0
  5 10  1  0     0  0
  6 10  2  0     0  0
  7 11  1  0     0  0
  7 12  1  0     0  0
  7 26  1  0     0  0
  8  9  1  0     0  0
  8 11  2  0     0  0
  9 12  2  0     0  0
 10 13  1  0     0  0
 11 27  1  0     0  0
 12 25  1  0     0  0
 13 14  1  0     0  0
 13 17  2  0     0  0
 14 15  1  0     0  0
 14 18  2  0     0  0
 15 19  2  0     0  0
 15 20  1  0     0  0
 16 21  2  0     0  0
 16 22  1  0     0  0
 16 26  1  0     0  0
 17 23  1  0     0  0
 18 24  1  0     0  0
 19 21  1  0     0  0
 20 22  2  0     0  0
 23 24  2  0     0  0
 27 28  1  0     0  0
 28 29  1  0     0  0
 29 30  1  0     0  0
M  END
> <standard_type>
pIC50

> <# Confs.>
25

> <canonical_smiles>
OCC1=C(Br)N=C(CCCC)N1CC2=CC=C(C3=CC=CC=C3C4=NN=NN4)C=C2

> <standard_relation>
=

> <Publication_ID>
nan

> <predicted_activity_value>
7.267606240177032

> <actual_activity_value>
7.721246399047171

> <Compound>
3

> <standard_units>
nM

> hash
3515073872214053168

$$$$
3_
XXILIB    08252103443D 0   0.00000     0.00000

 30 33  0     1  0            999 V2000
    5.1422    1.6003   -0.1306 Br  0  0  0  0  0  1           0  0  0
    1.6561    2.9360    1.3255 O   0  0  0  0  0  2           0  0  0
    2.2847    0.6445    5.8276 N   0  0  0  0  0  3           0  0  0
    2.3507   -0.5069    6.4821 N   0  0  0  0  0  3           0  0  0
    0.9798    0.9448    5.7837 N   0  0  0  0  0  3           0  0  0
    1.0982   -0.9384    6.8523 N   0  0  0  0  0  3           0  0  0
    1.4522   -0.0000    0.0000 N   0  0  0  0  0  3           0  0  0
    3.5408   -0.7602   -0.0401 N   0  0  0  0  0  3           0  0  0
    3.5408    0.6060   -0.0614 C   0  0  0  0  0  4           0  0  0
    0.2515   -0.0272    6.4141 C   0  0  0  0  0  4           0  0  0
    2.2714   -1.1136    0.0000 C   0  0  0  0  0  4           0  0  0
    2.2609    1.1201   -0.0296 C   0  0  0  0  0  4           0  0  0
   -1.1852   -0.0105    6.5428 C   0  0  0  0  0  4           0  0  0
   -2.0364    0.0012    5.4141 C   0  0  0  0  0  4           0  0  0
   -1.5275    0.0005    4.0481 C   0  0  0  0  0  4           0  0  0
   -0.5412   -0.0000    1.3973 C   0  0  0  0  0  4           0  0  0
   -1.7366    0.0046    7.8347 C   0  0  0  0  0  4           0  0  0
   -3.4287    0.0199    5.6248 C   0  0  0  0  0  4           0  0  0
   -1.2884   -1.2046    3.3712 C   0  0  0  0  0  4           0  0  0
   -1.2624    1.2052    3.3807 C   0  0  0  0  0  4           0  0  0
   -0.7987   -1.2048    2.0620 C   0  0  0  0  0  4           0  0  0
   -0.7726    1.2049    2.0716 C   0  0  0  0  0  4           0  0  0
   -3.1182    0.0232    8.0176 C   0  0  0  0  0  4           0  0  0
   -3.9641    0.0294    6.9137 C   0  0  0  0  0  4           0  0  0
    1.7667    2.5135   -0.0268 C   0  0  0  0  0  4           0  0  0
    0.0000    0.0000    0.0000 C   0  0  0  0  0  4           0  0  0
    1.7906   -2.5220    0.0467 C   0  0  0  0  0  4           0  0  0
    2.5287   -3.3968   -0.9602 C   0  0  0  0  0  4           0  0  0
    2.3731   -2.9484   -2.4141 C   0  0  0  0  0  4           0  0  0
    3.1216   -3.8424   -3.3915 C   0  0  0  0  0  4           0  0  0
  1  9  1  0     0  0
  2 25  1  0     0  0
  3  4  2  0     0  0
  3  5  1  0     0  0
  4  6  1  0     0  0
  5 10  1  0     0  0
  6 10  2  0     0  0
  7 11  1  0     0  0
  7 12  1  0     0  0
  7 26  1  0     0  0
  8  9  1  0     0  0
  8 11  2  0     0  0
  9 12  2  0     0  0
 10 13  1  0     0  0
 11 27  1  0     0  0
 12 25  1  0     0  0
 13 14  1  0     0  0
 13 17  2  0     0  0
 14 15  1  0     0  0
 14 18  2  0     0  0
 15 19  2  0     0  0
 15 20  1  0     0  0
 16 21  2  0     0  0
 16 22  1  0     0  0
 16 26  1  0     0  0
 17 23  1  0     0  0
 18 24  1  0     0  0
 19 21  1  0     0  0
 20 22  2  0     0  0
 23 24  2  0     0  0
 27 28  1  0     0  0
 28 29  1  0     0  0
 29 30  1  0     0  0
M  END
> <standard_type>
pIC50

> <# Confs.>
25

> <canonical_smiles>
OCC1=C(Br)N=C(CCCC)N1CC2=CC=C(C3=CC=CC=C3C4=NN=NN4)C=C2

> <standard_relation>
=

> <Publication_ID>
nan

> <predicted_activity_value>
7.267606240177032

> <actual_activity_value>
7.721246399047171

> <Compound>
3

> <standard_units>
nM

> hash
3515073872214053168

$$$$
3_
XXILIB    08252103443D 0   0.00000     0.00000

 30 33  0     1  0            999 V2000
    5.1422   -1.6003    0.1306 Br  0  0  0  0  0  1           0  0  0
    1.6561   -2.9360   -1.3255 O   0  0  0  0  0  2           0  0  0
   -3.9587    3.5139    3.4186 N   0  0  0  0  0  3           0  0  0
   -5.1397    2.9350    3.5874 N   0  0  0  0  0  3           0  0  0
   -3.1186    2.8244    4.2020 N   0  0  0  0  0  3           0  0  0
   -5.0544    1.8850    4.4719 N   0  0  0  0  0  3           0  0  0
    1.4522   -0.0000   -0.0000 N   0  0  0  0  0  3           0  0  0
    3.5408    0.7602    0.0401 N   0  0  0  0  0  3           0  0  0
    3.5408   -0.6060    0.0614 C   0  0  0  0  0  4           0  0  0
   -3.7919    1.8233    4.8479 C   0  0  0  0  0  4           0  0  0
    2.2714    1.1136    0.0000 C   0  0  0  0  0  4           0  0  0
    2.2609   -1.1201    0.0296 C   0  0  0  0  0  4           0  0  0
   -3.1809    0.8970    5.7698 C   0  0  0  0  0  4           0  0  0
   -2.1274    0.0392    5.3788 C   0  0  0  0  0  4           0  0  0
   -1.5880    0.0263    4.0246 C   0  0  0  0  0  4           0  0  0
   -0.5412    0.0000    1.3973 C   0  0  0  0  0  4           0  0  0
   -3.6666    0.8528    7.0871 C   0  0  0  0  0  4           0  0  0
   -1.5864   -0.8382    6.3384 C   0  0  0  0  0  4           0  0  0
   -0.5201    0.8633    3.6688 C   0  0  0  0  0  4           0  0  0
   -2.1271   -0.8211    3.0458 C   0  0  0  0  0  4           0  0  0
   -0.0043    0.8520    2.3697 C   0  0  0  0  0  4           0  0  0
   -1.6113   -0.8323    1.7468 C   0  0  0  0  0  4           0  0  0
   -3.1148   -0.0247    8.0189 C   0  0  0  0  0  4           0  0  0
   -2.0745   -0.8688    7.6457 C   0  0  0  0  0  4           0  0  0
    1.7667   -2.5135    0.0268 C   0  0  0  0  0  4           0  0  0
    0.0000    0.0000   -0.0000 C   0  0  0  0  0  4           0  0  0
    1.7906    2.5220   -0.0467 C   0  0  0  0  0  4           0  0  0
    1.6542    3.0171   -1.4822 C   0  0  0  0  0  4           0  0  0
    1.1632    4.4604   -1.6043 C   0  0  0  0  0  4           0  0  0
    1.0386    4.9218   -3.0488 C   0  0  0  0  0  4           0  0  0
  1  9  1  0     0  0
  2 25  1  0     0  0
  3  4  2  0     0  0
  3  5  1  0     0  0
  4  6  1  0     0  0
  5 10  1  0     0  0
  6 10  2  0     0  0
  7 11  1  0     0  0
  7 12  1  0     0  0
  7 26  1  0     0  0
  8  9  1  0     0  0
  8 11  2  0     0  0
  9 12  2  0     0  0
 10 13  1  0     0  0
 11 27  1  0     0  0
 12 25  1  0     0  0
 13 14  1  0     0  0
 13 17  2  0     0  0
 14 15  1  0     0  0
 14 18  2  0     0  0
 15 19  2  0     0  0
 15 20  1  0     0  0
 16 21  2  0     0  0
 16 22  1  0     0  0
 16 26  1  0     0  0
 17 23  1  0     0  0
 18 24  1  0     0  0
 19 21  1  0     0  0
 20 22  2  0     0  0
 23 24  2  0     0  0
 27 28  1  0     0  0
 28 29  1  0     0  0
 29 30  1  0     0  0
M  END
> <standard_type>
pIC50

> <# Confs.>
25

> <canonical_smiles>
OCC1=C(Br)N=C(CCCC)N1CC2=CC=C(C3=CC=CC=C3C4=NN=NN4)C=C2

> <standard_relation>
=

> <Publication_ID>
nan

> <predicted_activity_value>
7.267606240177032

> <actual_activity_value>
7.721246399047171

> <Compound>
3

> <standard_units>
nM

> hash
3515073872214053168

$$$$
3_
XXILIB    08252103443D 0   0.00000     0.00000

 30 33  0     1  0            999 V2000
    5.1422   -1.6003    0.1306 Br  0  0  0  0  0  1           0  0  0
    0.7450   -2.6136   -0.9558 O   0  0  0  0  0  2           0  0  0
    2.0595   -1.5386    5.7448 N   0  0  0  0  0  3           0  0  0
    1.5495   -2.6808    6.1847 N   0  0  0  0  0  3           0  0  0
    1.0508   -0.6594    5.8109 N   0  0  0  0  0  3           0  0  0
    0.2258   -2.5322    6.5281 N   0  0  0  0  0  3           0  0  0
    1.4522    0.0000    0.0000 N   0  0  0  0  0  3           0  0  0
    3.5408    0.7602    0.0401 N   0  0  0  0  0  3           0  0  0
    3.5408   -0.6060    0.0614 C   0  0  0  0  0  4           0  0  0
   -0.0750   -1.2699    6.2931 C   0  0  0  0  0  4           0  0  0
    2.2714    1.1136    0.0000 C   0  0  0  0  0  4           0  0  0
    2.2609   -1.1201    0.0296 C   0  0  0  0  0  4           0  0  0
   -1.3406   -0.6047    6.4852 C   0  0  0  0  0  4           0  0  0
   -2.0364    0.0012    5.4141 C   0  0  0  0  0  4           0  0  0
   -1.5275    0.0005    4.0481 C   0  0  0  0  0  4           0  0  0
   -0.5412    0.0000    1.3973 C   0  0  0  0  0  4           0  0  0
   -1.8769   -0.5587    7.7827 C   0  0  0  0  0  4           0  0  0
   -3.2654    0.6330    5.6853 C   0  0  0  0  0  4           0  0  0
   -1.2884   -1.2046    3.3712 C   0  0  0  0  0  4           0  0  0
   -1.2624    1.2052    3.3807 C   0  0  0  0  0  4           0  0  0
   -0.7987   -1.2048    2.0620 C   0  0  0  0  0  4           0  0  0
   -0.7726    1.2049    2.0716 C   0  0  0  0  0  4           0  0  0
   -3.0953    0.0729    8.0261 C   0  0  0  0  0  4           0  0  0
   -3.7901    0.6672    6.9782 C   0  0  0  0  0  4           0  0  0
    1.7667   -2.5135    0.0268 C   0  0  0  0  0  4           0  0  0
    0.0000    0.0000    0.0000 C   0  0  0  0  0  4           0  0  0
    1.7906    2.5220   -0.0467 C   0  0  0  0  0  4           0  0  0
    2.5287    3.3968    0.9602 C   0  0  0  0  0  4           0  0  0
    2.0834    4.8599    0.9659 C   0  0  0  0  0  4           0  0  0
    2.8396    5.7037    1.9814 C   0  0  0  0  0  4           0  0  0
  1  9  1  0     0  0
  2 25  1  0     0  0
  3  4  2  0     0  0
  3  5  1  0     0  0
  4  6  1  0     0  0
  5 10  1  0     0  0
  6 10  2  0     0  0
  7 11  1  0     0  0
  7 12  1  0     0  0
  7 26  1  0     0  0
  8  9  1  0     0  0
  8 11  2  0     0  0
  9 12  2  0     0  0
 10 13  1  0     0  0
 11 27  1  0     0  0
 12 25  1  0     0  0
 13 14  1  0     0  0
 13 17  2  0     0  0
 14 15  1  0     0  0
 14 18  2  0     0  0
 15 19  2  0     0  0
 15 20  1  0     0  0
 16 21  2  0     0  0
 16 22  1  0     0  0
 16 26  1  0     0  0
 17 23  1  0     0  0
 18 24  1  0     0  0
 19 21  1  0     0  0
 20 22  2  0     0  0
 23 24  2  0     0  0
 27 28  1  0     0  0
 28 29  1  0     0  0
 29 30  1  0     0  0
M  END
> <standard_type>
pIC50

> <# Confs.>
25

> <canonical_smiles>
OCC1=C(Br)N=C(CCCC)N1CC2=CC=C(C3=CC=CC=C3C4=NN=NN4)C=C2

> <standard_relation>
=

> <Publication_ID>
nan

> <predicted_activity_value>
7.267606240177032

> <actual_activity_value>
7.721246399047171

> <Compound>
3

> <standard_units>
nM

> hash
3515073872214053168

$$$$
3_
XXILIB    08252103443D 0   0.00000     0.00000

 30 33  0     1  0            999 V2000
    5.1422    1.6003   -0.1306 Br  0  0  0  0  0  1           0  0  0
    1.6561    2.9360    1.3255 O   0  0  0  0  0  2           0  0  0
   -5.3910   -1.4412    2.9777 N   0  0  0  0  0  3           0  0  0
   -5.3189   -2.5916    3.6333 N   0  0  0  0  0  3           0  0  0
   -4.6472   -0.5866    3.6928 N   0  0  0  0  0  3           0  0  0
   -4.5362   -2.4722    4.7581 N   0  0  0  0  0  3           0  0  0
    1.4522   -0.0000    0.0000 N   0  0  0  0  0  3           0  0  0
    3.5408   -0.7602   -0.0401 N   0  0  0  0  0  3           0  0  0
    3.5408    0.6060   -0.0614 C   0  0  0  0  0  4           0  0  0
   -4.1215   -1.2207    4.7857 C   0  0  0  0  0  4           0  0  0
    2.2714   -1.1136    0.0000 C   0  0  0  0  0  4           0  0  0
    2.2609    1.1201   -0.0296 C   0  0  0  0  0  4           0  0  0
   -3.2747   -0.5838    5.7647 C   0  0  0  0  0  4           0  0  0
   -2.0364    0.0012    5.4141 C   0  0  0  0  0  4           0  0  0
   -1.5275    0.0005    4.0481 C   0  0  0  0  0  4           0  0  0
   -0.5412    0.0000    1.3973 C   0  0  0  0  0  4           0  0  0
   -3.7044   -0.5629    7.1019 C   0  0  0  0  0  4           0  0  0
   -1.2671    0.6012    6.4297 C   0  0  0  0  0  4           0  0  0
   -1.2884   -1.2046    3.3712 C   0  0  0  0  0  4           0  0  0
   -1.2624    1.2052    3.3807 C   0  0  0  0  0  4           0  0  0
   -0.7987   -1.2048    2.0620 C   0  0  0  0  0  4           0  0  0
   -0.7726    1.2049    2.0716 C   0  0  0  0  0  4           0  0  0
   -2.9250    0.0369    8.0896 C   0  0  0  0  0  4           0  0  0
   -1.7078    0.6199    7.7539 C   0  0  0  0  0  4           0  0  0
    1.7667    2.5135   -0.0268 C   0  0  0  0  0  4           0  0  0
    0.0000   -0.0000    0.0000 C   0  0  0  0  0  4           0  0  0
    1.7906   -2.5220    0.0467 C   0  0  0  0  0  4           0  0  0
    2.5905   -3.3513    1.0450 C   0  0  0  0  0  4           0  0  0
    2.5240   -2.8373    2.4839 C   0  0  0  0  0  4           0  0  0
    3.3326   -3.6873    3.4528 C   0  0  0  0  0  4           0  0  0
  1  9  1  0     0  0
  2 25  1  0     0  0
  3  4  2  0     0  0
  3  5  1  0     0  0
  4  6  1  0     0  0
  5 10  1  0     0  0
  6 10  2  0     0  0
  7 11  1  0     0  0
  7 12  1  0     0  0
  7 26  1  0     0  0
  8  9  1  0     0  0
  8 11  2  0     0  0
  9 12  2  0     0  0
 10 13  1  0     0  0
 11 27  1  0     0  0
 12 25  1  0     0  0
 13 14  1  0     0  0
 13 17  2  0     0  0
 14 15  1  0     0  0
 14 18  2  0     0  0
 15 19  2  0     0  0
 15 20  1  0     0  0
 16 21  2  0     0  0
 16 22  1  0     0  0
 16 26  1  0     0  0
 17 23  1  0     0  0
 18 24  1  0     0  0
 19 21  1  0     0  0
 20 22  2  0     0  0
 23 24  2  0     0  0
 27 28  1  0     0  0
 28 29  1  0     0  0
 29 30  1  0     0  0
M  END
> <standard_type>
pIC50

> <# Confs.>
25

> <canonical_smiles>
OCC1=C(Br)N=C(CCCC)N1CC2=CC=C(C3=CC=CC=C3C4=NN=NN4)C=C2

> <standard_relation>
=

> <Publication_ID>
nan

> <predicted_activity_value>
7.267606240177032

> <actual_activity_value>
7.721246399047171

> <Compound>
3

> <standard_units>
nM

> hash
3515073872214053168

$$$$
3_
XXILIB    08252103443D 0   0.00000     0.00000

 30 33  0     1  0            999 V2000
    5.1422   -1.6003    0.1306 Br  0  0  0  0  0  1           0  0  0
    1.6561   -2.9360   -1.3255 O   0  0  0  0  0  2           0  0  0
    1.8494   -1.7750    5.7823 N   0  0  0  0  0  3           0  0  0
    2.1962   -0.7466    6.5443 N   0  0  0  0  0  3           0  0  0
    0.5146   -1.7062    5.6922 N   0  0  0  0  0  3           0  0  0
    1.0916   -0.0276    6.9380 N   0  0  0  0  0  3           0  0  0
    1.4522    0.0000    0.0000 N   0  0  0  0  0  3           0  0  0
    3.5408    0.7602    0.0401 N   0  0  0  0  0  3           0  0  0
    3.5408   -0.6060    0.0614 C   0  0  0  0  0  4           0  0  0
    0.0496   -0.6321    6.4013 C   0  0  0  0  0  4           0  0  0
    2.2714    1.1136    0.0000 C   0  0  0  0  0  4           0  0  0
    2.2609   -1.1201    0.0296 C   0  0  0  0  0  4           0  0  0
   -1.3434   -0.2740    6.5128 C   0  0  0  0  0  4           0  0  0
   -2.1274    0.0392    5.3788 C   0  0  0  0  0  4           0  0  0
   -1.5880    0.0263    4.0246 C   0  0  0  0  0  4           0  0  0
   -0.5412   -0.0000    1.3973 C   0  0  0  0  0  4           0  0  0
   -1.9180   -0.2306    7.7939 C   0  0  0  0  0  4           0  0  0
   -3.4796    0.3816    5.5727 C   0  0  0  0  0  4           0  0  0
   -0.5201    0.8633    3.6688 C   0  0  0  0  0  4           0  0  0
   -2.1271   -0.8211    3.0458 C   0  0  0  0  0  4           0  0  0
   -0.0043    0.8520    2.3697 C   0  0  0  0  0  4           0  0  0
   -1.6113   -0.8323    1.7468 C   0  0  0  0  0  4           0  0  0
   -3.2589    0.1114    7.9603 C   0  0  0  0  0  4           0  0  0
   -4.0399    0.4160    6.8506 C   0  0  0  0  0  4           0  0  0
    1.7667   -2.5135    0.0268 C   0  0  0  0  0  4           0  0  0
    0.0000    0.0000    0.0000 C   0  0  0  0  0  4           0  0  0
    1.7906    2.5220   -0.0467 C   0  0  0  0  0  4           0  0  0
    2.5905    3.3513   -1.0450 C   0  0  0  0  0  4           0  0  0
    2.5240    2.8373   -2.4839 C   0  0  0  0  0  4           0  0  0
    3.3326    3.6873   -3.4528 C   0  0  0  0  0  4           0  0  0
  1  9  1  0     0  0
  2 25  1  0     0  0
  3  4  2  0     0  0
  3  5  1  0     0  0
  4  6  1  0     0  0
  5 10  1  0     0  0
  6 10  2  0     0  0
  7 11  1  0     0  0
  7 12  1  0     0  0
  7 26  1  0     0  0
  8  9  1  0     0  0
  8 11  2  0     0  0
  9 12  2  0     0  0
 10 13  1  0     0  0
 11 27  1  0     0  0
 12 25  1  0     0  0
 13 14  1  0     0  0
 13 17  2  0     0  0
 14 15  1  0     0  0
 14 18  2  0     0  0
 15 19  2  0     0  0
 15 20  1  0     0  0
 16 21  2  0     0  0
 16 22  1  0     0  0
 16 26  1  0     0  0
 17 23  1  0     0  0
 18 24  1  0     0  0
 19 21  1  0     0  0
 20 22  2  0     0  0
 23 24  2  0     0  0
 27 28  1  0     0  0
 28 29  1  0     0  0
 29 30  1  0     0  0
M  END
> <standard_type>
pIC50

> <# Confs.>
25

> <canonical_smiles>
OCC1=C(Br)N=C(CCCC)N1CC2=CC=C(C3=CC=CC=C3C4=NN=NN4)C=C2

> <standard_relation>
=

> <Publication_ID>
nan

> <predicted_activity_value>
7.267606240177032

> <actual_activity_value>
7.721246399047171

> <Compound>
3

> <standard_units>
nM

> hash
3515073872214053168

$$$$
3_
XXILIB    08252103443D 0   0.00000     0.00000

 30 33  0     1  0            999 V2000
    5.1422   -1.6003    0.1306 Br  0  0  0  0  0  1           0  0  0
    1.6561   -2.9360   -1.3255 O   0  0  0  0  0  2           0  0  0
    1.8494   -1.7750    5.7823 N   0  0  0  0  0  3           0  0  0
    2.1962   -0.7466    6.5443 N   0  0  0  0  0  3           0  0  0
    0.5146   -1.7062    5.6922 N   0  0  0  0  0  3           0  0  0
    1.0916   -0.0276    6.9380 N   0  0  0  0  0  3           0  0  0
    1.4522    0.0000    0.0000 N   0  0  0  0  0  3           0  0  0
    3.5408    0.7602    0.0401 N   0  0  0  0  0  3           0  0  0
    3.5408   -0.6060    0.0614 C   0  0  0  0  0  4           0  0  0
    0.0496   -0.6321    6.4013 C   0  0  0  0  0  4           0  0  0
    2.2714    1.1136    0.0000 C   0  0  0  0  0  4           0  0  0
    2.2609   -1.1201    0.0296 C   0  0  0  0  0  4           0  0  0
   -1.3434   -0.2740    6.5128 C   0  0  0  0  0  4           0  0  0
   -2.1274    0.0392    5.3788 C   0  0  0  0  0  4           0  0  0
   -1.5880    0.0263    4.0246 C   0  0  0  0  0  4           0  0  0
   -0.5412   -0.0000    1.3973 C   0  0  0  0  0  4           0  0  0
   -1.9180   -0.2306    7.7939 C   0  0  0  0  0  4           0  0  0
   -3.4796    0.3816    5.5727 C   0  0  0  0  0  4           0  0  0
   -0.5201    0.8633    3.6688 C   0  0  0  0  0  4           0  0  0
   -2.1271   -0.8211    3.0458 C   0  0  0  0  0  4           0  0  0
   -0.0043    0.8520    2.3697 C   0  0  0  0  0  4           0  0  0
   -1.6113   -0.8323    1.7468 C   0  0  0  0  0  4           0  0  0
   -3.2589    0.1114    7.9603 C   0  0  0  0  0  4           0  0  0
   -4.0399    0.4160    6.8506 C   0  0  0  0  0  4           0  0  0
    1.7667   -2.5135    0.0268 C   0  0  0  0  0  4           0  0  0
    0.0000    0.0000    0.0000 C   0  0  0  0  0  4           0  0  0
    1.7906    2.5220   -0.0467 C   0  0  0  0  0  4           0  0  0
    2.5287    3.3968    0.9602 C   0  0  0  0  0  4           0  0  0
    2.0834    4.8599    0.9659 C   0  0  0  0  0  4           0  0  0
    2.8396    5.7037    1.9814 C   0  0  0  0  0  4           0  0  0
  1  9  1  0     0  0
  2 25  1  0     0  0
  3  4  2  0     0  0
  3  5  1  0     0  0
  4  6  1  0     0  0
  5 10  1  0     0  0
  6 10  2  0     0  0
  7 11  1  0     0  0
  7 12  1  0     0  0
  7 26  1  0     0  0
  8  9  1  0     0  0
  8 11  2  0     0  0
  9 12  2  0     0  0
 10 13  1  0     0  0
 11 27  1  0     0  0
 12 25  1  0     0  0
 13 14  1  0     0  0
 13 17  2  0     0  0
 14 15  1  0     0  0
 14 18  2  0     0  0
 15 19  2  0     0  0
 15 20  1  0     0  0
 16 21  2  0     0  0
 16 22  1  0     0  0
 16 26  1  0     0  0
 17 23  1  0     0  0
 18 24  1  0     0  0
 19 21  1  0     0  0
 20 22  2  0     0  0
 23 24  2  0     0  0
 27 28  1  0     0  0
 28 29  1  0     0  0
 29 30  1  0     0  0
M  END
> <standard_type>
pIC50

> <# Confs.>
25

> <canonical_smiles>
OCC1=C(Br)N=C(CCCC)N1CC2=CC=C(C3=CC=CC=C3C4=NN=NN4)C=C2

> <standard_relation>
=

> <Publication_ID>
nan

> <predicted_activity_value>
7.267606240177032

> <actual_activity_value>
7.721246399047171

> <Compound>
3

> <standard_units>
nM

> hash
3515073872214053168

$$$$
3_
XXILIB    08252103443D 0   0.00000     0.00000

 30 33  0     1  0            999 V2000
    5.1422   -1.6003    0.1306 Br  0  0  0  0  0  1           0  0  0
    1.6561   -2.9360   -1.3255 O   0  0  0  0  0  2           0  0  0
   -0.0511    3.8132    5.0461 N   0  0  0  0  0  3           0  0  0
   -1.2215    4.4117    5.2204 N   0  0  0  0  0  3           0  0  0
   -0.2591    2.5359    5.3926 N   0  0  0  0  0  3           0  0  0
   -2.1686    3.5239    5.6752 N   0  0  0  0  0  3           0  0  0
    1.4522   -0.0000   -0.0000 N   0  0  0  0  0  3           0  0  0
    3.5408    0.7602    0.0401 N   0  0  0  0  0  3           0  0  0
    3.5408   -0.6060    0.0614 C   0  0  0  0  0  4           0  0  0
   -1.5601    2.3584    5.7778 C   0  0  0  0  0  4           0  0  0
    2.2714    1.1136    0.0000 C   0  0  0  0  0  4           0  0  0
    2.2609   -1.1201    0.0296 C   0  0  0  0  0  4           0  0  0
   -2.1134    1.0997    6.2146 C   0  0  0  0  0  4           0  0  0
   -2.1258   -0.0409    5.3794 C   0  0  0  0  0  4           0  0  0
   -1.5873   -0.0271    4.0249 C   0  0  0  0  0  4           0  0  0
   -0.5412    0.0000    1.3973 C   0  0  0  0  0  4           0  0  0
   -2.6602    1.0267    7.5064 C   0  0  0  0  0  4           0  0  0
   -2.6868   -1.2318    5.8798 C   0  0  0  0  0  4           0  0  0
   -2.1086    0.8402    3.0535 C   0  0  0  0  0  4           0  0  0
   -0.5377   -0.8833    3.6614 C   0  0  0  0  0  4           0  0  0
   -1.5932    0.8520    1.7543 C   0  0  0  0  0  4           0  0  0
   -0.0224   -0.8716    2.3622 C   0  0  0  0  0  4           0  0  0
   -3.2102   -0.1636    7.9791 C   0  0  0  0  0  4           0  0  0
   -3.2223   -1.2927    7.1673 C   0  0  0  0  0  4           0  0  0
    1.7667   -2.5135    0.0268 C   0  0  0  0  0  4           0  0  0
    0.0000    0.0000    0.0000 C   0  0  0  0  0  4           0  0  0
    1.7906    2.5220   -0.0467 C   0  0  0  0  0  4           0  0  0
    1.6542    3.0171   -1.4822 C   0  0  0  0  0  4           0  0  0
    1.1632    4.4604   -1.6043 C   0  0  0  0  0  4           0  0  0
    1.0386    4.9218   -3.0488 C   0  0  0  0  0  4           0  0  0
  1  9  1  0     0  0
  2 25  1  0     0  0
  3  4  2  0     0  0
  3  5  1  0     0  0
  4  6  1  0     0  0
  5 10  1  0     0  0
  6 10  2  0     0  0
  7 11  1  0     0  0
  7 12  1  0     0  0
  7 26  1  0     0  0
  8  9  1  0     0  0
  8 11  2  0     0  0
  9 12  2  0     0  0
 10 13  1  0     0  0
 11 27  1  0     0  0
 12 25  1  0     0  0
 13 14  1  0     0  0
 13 17  2  0     0  0
 14 15  1  0     0  0
 14 18  2  0     0  0
 15 19  2  0     0  0
 15 20  1  0     0  0
 16 21  2  0     0  0
 16 22  1  0     0  0
 16 26  1  0     0  0
 17 23  1  0     0  0
 18 24  1  0     0  0
 19 21  1  0     0  0
 20 22  2  0     0  0
 23 24  2  0     0  0
 27 28  1  0     0  0
 28 29  1  0     0  0
 29 30  1  0     0  0
M  END
> <standard_type>
pIC50

> <# Confs.>
25

> <canonical_smiles>
OCC1=C(Br)N=C(CCCC)N1CC2=CC=C(C3=CC=CC=C3C4=NN=NN4)C=C2

> <standard_relation>
=

> <Publication_ID>
nan

> <predicted_activity_value>
7.267606240177032

> <actual_activity_value>
7.721246399047171

> <Compound>
3

> <standard_units>
nM

> hash
3515073872214053168

$$$$
19_
XXILIB    08252103443D 0   0.00000     0.00000

 30 32  0     1  0            999 V2000
    5.0277    1.4596   -0.0265 Cl  0  0  0  0  0  1           0  0  0
    2.4689    0.7497    6.7775 O   0  0  0  0  0  2           0  0  0
    0.7794   -1.0827    5.9124 O   0  0  0  0  0  2           0  0  0
    1.5405    2.8932    1.3688 O   0  0  0  0  0  2           0  0  0
    1.4530   -0.0000    0.0000 N   0  0  0  0  0  3           0  0  0
    3.5352   -0.7623   -0.0079 N   0  0  0  0  0  3           0  0  0
    1.0783    0.9282    6.9335 N   0  0  0  0  0  3           0  0  0
    3.5486    0.6094   -0.0071 C   0  0  0  0  0  4           0  0  0
    2.2669   -1.1146    0.0000 C   0  0  0  0  0  4           0  0  0
    2.2623    1.1246    0.0085 C   0  0  0  0  0  4           0  0  0
   -2.0115   -0.0015    5.4340 C   0  0  0  0  0  4           0  0  0
   -1.5127   -0.0005    4.0537 C   0  0  0  0  0  4           0  0  0
   -1.1706    0.0105    6.5706 C   0  0  0  0  0  4           0  0  0
   -0.5412   -0.0000    1.3970 C   0  0  0  0  0  4           0  0  0
   -3.4040    0.0236    5.6546 C   0  0  0  0  0  4           0  0  0
   -1.2808    1.2047    3.3741 C   0  0  0  0  0  4           0  0  0
   -1.2500   -1.2051    3.3848 C   0  0  0  0  0  4           0  0  0
   -1.7150    0.0530    7.8653 C   0  0  0  0  0  4           0  0  0
   -0.7987    1.2047    2.0618 C   0  0  0  0  0  4           0  0  0
   -0.7680   -1.2047    2.0728 C   0  0  0  0  0  4           0  0  0
   -3.9396    0.0691    6.9437 C   0  0  0  0  0  4           0  0  0
   -3.0953    0.0861    8.0475 C   0  0  0  0  0  4           0  0  0
    0.3006   -0.0835    6.4487 C   0  0  0  0  0  4           0  0  0
    1.7079    2.4956    0.0149 C   0  0  0  0  0  4           0  0  0
    2.8578    1.3096    5.5289 C   0  0  0  0  0  4           0  0  0
    0.0000   -0.0000    0.0000 C   0  0  0  0  0  4           0  0  0
    1.7822   -2.5218    0.0006 C   0  0  0  0  0  4           0  0  0
    2.5361   -3.3955   -0.9971 C   0  0  0  0  0  4           0  0  0
    2.0464   -4.8414   -1.0045 C   0  0  0  0  0  4           0  0  0
    2.7972   -5.7145   -1.9990 C   0  0  0  0  0  4           0  0  0
  1  8  1  0     0  0
  2  7  1  0     0  0
  2 25  1  0     0  0
  3 23  2  0     0  0
  4 24  1  0     0  0
  5  9  1  0     0  0
  5 10  1  0     0  0
  5 26  1  0     0  0
  6  8  1  0     0  0
  6  9  2  0     0  0
  7 23  1  0     0  0
  8 10  2  0     0  0
  9 27  1  0     0  0
 10 24  1  0     0  0
 11 12  1  0     0  0
 11 13  1  0     0  0
 11 15  2  0     0  0
 12 16  2  0     0  0
 12 17  1  0     0  0
 13 18  2  0     0  0
 13 23  1  0     0  0
 14 19  2  0     0  0
 14 20  1  0     0  0
 14 26  1  0     0  0
 15 21  1  0     0  0
 16 19  1  0     0  0
 17 20  2  0     0  0
 18 22  1  0     0  0
 21 22  2  0     0  0
 27 28  1  0     0  0
 28 29  1  0     0  0
 29 30  1  0     0  0
M  END
> <standard_type>
pIC50

> <# Confs.>
25

> <canonical_smiles>
ClC(N=C1CCCC)=C(CO)N1CC2=CC=C(C3=CC=CC=C3C(NOC)=O)C=C2

> <standard_relation>
=

> <Publication_ID>
nan

> <predicted_activity_value>
5.045757490560675

> <actual_activity_value>
5.3872161432802645

> <Compound>
19

> <standard_units>
nM

> hash
9076080683995789151

$$$$
19_
XXILIB    08252103443D 0   0.00000     0.00000

 30 32  0     1  0            999 V2000
    5.0277    1.4596   -0.0265 Cl  0  0  0  0  0  1           0  0  0
   -6.2849    1.1332    3.7441 O   0  0  0  0  0  2           0  0  0
   -4.4834   -0.7903    3.8673 O   0  0  0  0  0  2           0  0  0
    1.5405    2.8932    1.3688 O   0  0  0  0  0  2           0  0  0
    1.4530   -0.0000    0.0000 N   0  0  0  0  0  3           0  0  0
    3.5352   -0.7623   -0.0079 N   0  0  0  0  0  3           0  0  0
   -5.3190    1.1225    4.7722 N   0  0  0  0  0  3           0  0  0
    3.5486    0.6094   -0.0071 C   0  0  0  0  0  4           0  0  0
    2.2669   -1.1146    0.0000 C   0  0  0  0  0  4           0  0  0
    2.2623    1.1246    0.0085 C   0  0  0  0  0  4           0  0  0
   -2.0115   -0.0015    5.4340 C   0  0  0  0  0  4           0  0  0
   -1.5127   -0.0005    4.0537 C   0  0  0  0  0  4           0  0  0
   -3.3847   -0.0147    5.7705 C   0  0  0  0  0  4           0  0  0
   -0.5412   -0.0000    1.3970 C   0  0  0  0  0  4           0  0  0
   -1.0817   -0.0277    6.4937 C   0  0  0  0  0  4           0  0  0
   -1.2808    1.2047    3.3741 C   0  0  0  0  0  4           0  0  0
   -1.2500   -1.2051    3.3848 C   0  0  0  0  0  4           0  0  0
   -3.7936   -0.0593    7.1141 C   0  0  0  0  0  4           0  0  0
   -0.7987    1.2047    2.0618 C   0  0  0  0  0  4           0  0  0
   -0.7680   -1.2047    2.0728 C   0  0  0  0  0  4           0  0  0
   -1.4938   -0.0751    7.8274 C   0  0  0  0  0  4           0  0  0
   -2.8486   -0.0932    8.1365 C   0  0  0  0  0  4           0  0  0
   -4.4382    0.0802    4.7365 C   0  0  0  0  0  4           0  0  0
    1.7079    2.4956    0.0149 C   0  0  0  0  0  4           0  0  0
   -5.7620    1.8658    2.6423 C   0  0  0  0  0  4           0  0  0
    0.0000    0.0000    0.0000 C   0  0  0  0  0  4           0  0  0
    1.7822   -2.5218    0.0006 C   0  0  0  0  0  4           0  0  0
    2.5361   -3.3955   -0.9971 C   0  0  0  0  0  4           0  0  0
    2.0464   -4.8414   -1.0045 C   0  0  0  0  0  4           0  0  0
    2.7972   -5.7145   -1.9990 C   0  0  0  0  0  4           0  0  0
  1  8  1  0     0  0
  2  7  1  0     0  0
  2 25  1  0     0  0
  3 23  2  0     0  0
  4 24  1  0     0  0
  5  9  1  0     0  0
  5 10  1  0     0  0
  5 26  1  0     0  0
  6  8  1  0     0  0
  6  9  2  0     0  0
  7 23  1  0     0  0
  8 10  2  0     0  0
  9 27  1  0     0  0
 10 24  1  0     0  0
 11 12  1  0     0  0
 11 13  1  0     0  0
 11 15  2  0     0  0
 12 16  2  0     0  0
 12 17  1  0     0  0
 13 18  2  0     0  0
 13 23  1  0     0  0
 14 19  2  0     0  0
 14 20  1  0     0  0
 14 26  1  0     0  0
 15 21  1  0     0  0
 16 19  1  0     0  0
 17 20  2  0     0  0
 18 22  1  0     0  0
 21 22  2  0     0  0
 27 28  1  0     0  0
 28 29  1  0     0  0
 29 30  1  0     0  0
M  END
> <standard_type>
pIC50

> <# Confs.>
25

> <canonical_smiles>
ClC(N=C1CCCC)=C(CO)N1CC2=CC=C(C3=CC=CC=C3C(NOC)=O)C=C2

> <standard_relation>
=

> <Publication_ID>
nan

> <predicted_activity_value>
5.045757490560675

> <actual_activity_value>
5.3872161432802645

> <Compound>
19

> <standard_units>
nM

> hash
9076080683995789151

$$$$
19_
XXILIB    08252103443D 0   0.00000     0.00000

 30 32  0     1  0            999 V2000
    5.0277    1.4596   -0.0265 Cl  0  0  0  0  0  1           0  0  0
    2.4689    0.7497    6.7775 O   0  0  0  0  0  2           0  0  0
    0.7794   -1.0827    5.9124 O   0  0  0  0  0  2           0  0  0
    1.5405    2.8932    1.3688 O   0  0  0  0  0  2           0  0  0
    1.4530   -0.0000    0.0000 N   0  0  0  0  0  3           0  0  0
    3.5352   -0.7623   -0.0079 N   0  0  0  0  0  3           0  0  0
    1.0783    0.9282    6.9335 N   0  0  0  0  0  3           0  0  0
    3.5486    0.6094   -0.0071 C   0  0  0  0  0  4           0  0  0
    2.2669   -1.1146    0.0000 C   0  0  0  0  0  4           0  0  0
    2.2623    1.1246    0.0085 C   0  0  0  0  0  4           0  0  0
   -2.0115   -0.0015    5.4340 C   0  0  0  0  0  4           0  0  0
   -1.5127   -0.0005    4.0537 C   0  0  0  0  0  4           0  0  0
   -1.1706    0.0105    6.5706 C   0  0  0  0  0  4           0  0  0
   -0.5412   -0.0000    1.3970 C   0  0  0  0  0  4           0  0  0
   -3.4040    0.0236    5.6546 C   0  0  0  0  0  4           0  0  0
   -1.2808    1.2047    3.3741 C   0  0  0  0  0  4           0  0  0
   -1.2500   -1.2051    3.3848 C   0  0  0  0  0  4           0  0  0
   -1.7150    0.0530    7.8653 C   0  0  0  0  0  4           0  0  0
   -0.7987    1.2047    2.0618 C   0  0  0  0  0  4           0  0  0
   -0.7680   -1.2047    2.0728 C   0  0  0  0  0  4           0  0  0
   -3.9396    0.0691    6.9437 C   0  0  0  0  0  4           0  0  0
   -3.0953    0.0861    8.0475 C   0  0  0  0  0  4           0  0  0
    0.3006   -0.0835    6.4487 C   0  0  0  0  0  4           0  0  0
    1.7079    2.4956    0.0149 C   0  0  0  0  0  4           0  0  0
    2.8578    1.3096    5.5289 C   0  0  0  0  0  4           0  0  0
    0.0000   -0.0000    0.0000 C   0  0  0  0  0  4           0  0  0
    1.7822   -2.5218    0.0006 C   0  0  0  0  0  4           0  0  0
    2.5361   -3.3955   -0.9971 C   0  0  0  0  0  4           0  0  0
    2.4037   -2.8997   -2.4349 C   0  0  0  0  0  4           0  0  0
    3.1550   -3.7699   -3.4315 C   0  0  0  0  0  4           0  0  0
  1  8  1  0     0  0
  2  7  1  0     0  0
  2 25  1  0     0  0
  3 23  2  0     0  0
  4 24  1  0     0  0
  5  9  1  0     0  0
  5 10  1  0     0  0
  5 26  1  0     0  0
  6  8  1  0     0  0
  6  9  2  0     0  0
  7 23  1  0     0  0
  8 10  2  0     0  0
  9 27  1  0     0  0
 10 24  1  0     0  0
 11 12  1  0     0  0
 11 13  1  0     0  0
 11 15  2  0     0  0
 12 16  2  0     0  0
 12 17  1  0     0  0
 13 18  2  0     0  0
 13 23  1  0     0  0
 14 19  2  0     0  0
 14 20  1  0     0  0
 14 26  1  0     0  0
 15 21  1  0     0  0
 16 19  1  0     0  0
 17 20  2  0     0  0
 18 22  1  0     0  0
 21 22  2  0     0  0
 27 28  1  0     0  0
 28 29  1  0     0  0
 29 30  1  0     0  0
M  END
> <standard_type>
pIC50

> <# Confs.>
25

> <canonical_smiles>
ClC(N=C1CCCC)=C(CO)N1CC2=CC=C(C3=CC=CC=C3C(NOC)=O)C=C2

> <standard_relation>
=

> <Publication_ID>
nan

> <predicted_activity_value>
5.045757490560675

> <actual_activity_value>
5.3872161432802645

> <Compound>
19

> <standard_units>
nM

> hash
9076080683995789151

$$$$
19_
XXILIB    08252103443D 0   0.00000     0.00000

 30 32  0     1  0            999 V2000
    5.0277    1.4596   -0.0265 Cl  0  0  0  0  0  1           0  0  0
   -6.3155   -0.7523    3.6022 O   0  0  0  0  0  2           0  0  0
   -4.4641    1.0804    4.0193 O   0  0  0  0  0  2           0  0  0
    1.5405    2.8932    1.3688 O   0  0  0  0  0  2           0  0  0
    1.4530   -0.0000    0.0000 N   0  0  0  0  0  3           0  0  0
    3.5352   -0.7623   -0.0079 N   0  0  0  0  0  3           0  0  0
   -5.3456   -0.9318    4.6108 N   0  0  0  0  0  3           0  0  0
    3.5486    0.6094   -0.0071 C   0  0  0  0  0  4           0  0  0
    2.2669   -1.1146    0.0000 C   0  0  0  0  0  4           0  0  0
    2.2623    1.1246    0.0085 C   0  0  0  0  0  4           0  0  0
   -2.0115   -0.0015    5.4340 C   0  0  0  0  0  4           0  0  0
   -1.5127   -0.0005    4.0537 C   0  0  0  0  0  4           0  0  0
   -3.3847   -0.0147    5.7705 C   0  0  0  0  0  4           0  0  0
   -0.5412   -0.0000    1.3970 C   0  0  0  0  0  4           0  0  0
   -1.0817   -0.0277    6.4937 C   0  0  0  0  0  4           0  0  0
   -1.2808    1.2047    3.3741 C   0  0  0  0  0  4           0  0  0
   -1.2500   -1.2051    3.3848 C   0  0  0  0  0  4           0  0  0
   -3.7936   -0.0593    7.1141 C   0  0  0  0  0  4           0  0  0
   -0.7987    1.2047    2.0618 C   0  0  0  0  0  4           0  0  0
   -0.7680   -1.2047    2.0728 C   0  0  0  0  0  4           0  0  0
   -1.4938   -0.0751    7.8274 C   0  0  0  0  0  4           0  0  0
   -2.8486   -0.0932    8.1365 C   0  0  0  0  0  4           0  0  0
   -4.4382    0.0802    4.7365 C   0  0  0  0  0  4           0  0  0
    1.7079    2.4956    0.0149 C   0  0  0  0  0  4           0  0  0
   -5.8161   -1.3104    2.3926 C   0  0  0  0  0  4           0  0  0
    0.0000    0.0000    0.0000 C   0  0  0  0  0  4           0  0  0
    1.7822   -2.5218    0.0006 C   0  0  0  0  0  4           0  0  0
    2.5361   -3.3955   -0.9971 C   0  0  0  0  0  4           0  0  0
    2.0464   -4.8414   -1.0045 C   0  0  0  0  0  4           0  0  0
    2.7972   -5.7145   -1.9990 C   0  0  0  0  0  4           0  0  0
  1  8  1  0     0  0
  2  7  1  0     0  0
  2 25  1  0     0  0
  3 23  2  0     0  0
  4 24  1  0     0  0
  5  9  1  0     0  0
  5 10  1  0     0  0
  5 26  1  0     0  0
  6  8  1  0     0  0
  6  9  2  0     0  0
  7 23  1  0     0  0
  8 10  2  0     0  0
  9 27  1  0     0  0
 10 24  1  0     0  0
 11 12  1  0     0  0
 11 13  1  0     0  0
 11 15  2  0     0  0
 12 16  2  0     0  0
 12 17  1  0     0  0
 13 18  2  0     0  0
 13 23  1  0     0  0
 14 19  2  0     0  0
 14 20  1  0     0  0
 14 26  1  0     0  0
 15 21  1  0     0  0
 16 19  1  0     0  0
 17 20  2  0     0  0
 18 22  1  0     0  0
 21 22  2  0     0  0
 27 28  1  0     0  0
 28 29  1  0     0  0
 29 30  1  0     0  0
M  END
> <standard_type>
pIC50

> <# Confs.>
25

> <canonical_smiles>
ClC(N=C1CCCC)=C(CO)N1CC2=CC=C(C3=CC=CC=C3C(NOC)=O)C=C2

> <standard_relation>
=

> <Publication_ID>
nan

> <predicted_activity_value>
5.045757490560675

> <actual_activity_value>
5.3872161432802645

> <Compound>
19

> <standard_units>
nM

> hash
9076080683995789151

$$$$
19_
XXILIB    08252103443D 0   0.00000     0.00000

 30 32  0     1  0            999 V2000
    5.0277    1.4596   -0.0265 Cl  0  0  0  0  0  1           0  0  0
    2.3634    1.0498    6.3523 O   0  0  0  0  0  2           0  0  0
    0.1040    2.3755    6.0387 O   0  0  0  0  0  2           0  0  0
    1.5405    2.8932    1.3688 O   0  0  0  0  0  2           0  0  0
    1.4530   -0.0000    0.0000 N   0  0  0  0  0  3           0  0  0
    3.5352   -0.7623   -0.0079 N   0  0  0  0  0  3           0  0  0
    1.1231    0.4036    6.5373 N   0  0  0  0  0  3           0  0  0
    3.5486    0.6094   -0.0071 C   0  0  0  0  0  4           0  0  0
    2.2669   -1.1146    0.0000 C   0  0  0  0  0  4           0  0  0
    2.2623    1.1246    0.0085 C   0  0  0  0  0  4           0  0  0
   -2.0115   -0.0015    5.4340 C   0  0  0  0  0  4           0  0  0
   -1.5127   -0.0005    4.0537 C   0  0  0  0  0  4           0  0  0
   -1.3250    0.5974    6.5153 C   0  0  0  0  0  4           0  0  0
   -0.5412    0.0000    1.3970 C   0  0  0  0  0  4           0  0  0
   -3.2603   -0.5971    5.7060 C   0  0  0  0  0  4           0  0  0
   -1.2808    1.2047    3.3741 C   0  0  0  0  0  4           0  0  0
   -1.2500   -1.2051    3.3848 C   0  0  0  0  0  4           0  0  0
   -1.8808    0.5981    7.8058 C   0  0  0  0  0  4           0  0  0
   -0.7987    1.2047    2.0618 C   0  0  0  0  0  4           0  0  0
   -0.7680   -1.2047    2.0728 C   0  0  0  0  0  4           0  0  0
   -3.8095   -0.5907    6.9902 C   0  0  0  0  0  4           0  0  0
   -3.1210    0.0085    8.0381 C   0  0  0  0  0  4           0  0  0
    0.0213    1.1871    6.3488 C   0  0  0  0  0  4           0  0  0
    1.7079    2.4956    0.0149 C   0  0  0  0  0  4           0  0  0
    3.0654    0.3870    5.3075 C   0  0  0  0  0  4           0  0  0
    0.0000    0.0000    0.0000 C   0  0  0  0  0  4           0  0  0
    1.7822   -2.5218    0.0006 C   0  0  0  0  0  4           0  0  0
    2.5361   -3.3955   -0.9971 C   0  0  0  0  0  4           0  0  0
    2.0464   -4.8414   -1.0045 C   0  0  0  0  0  4           0  0  0
    2.7972   -5.7145   -1.9990 C   0  0  0  0  0  4           0  0  0
  1  8  1  0     0  0
  2  7  1  0     0  0
  2 25  1  0     0  0
  3 23  2  0     0  0
  4 24  1  0     0  0
  5  9  1  0     0  0
  5 10  1  0     0  0
  5 26  1  0     0  0
  6  8  1  0     0  0
  6  9  2  0     0  0
  7 23  1  0     0  0
  8 10  2  0     0  0
  9 27  1  0     0  0
 10 24  1  0     0  0
 11 12  1  0     0  0
 11 13  1  0     0  0
 11 15  2  0     0  0
 12 16  2  0     0  0
 12 17  1  0     0  0
 13 18  2  0     0  0
 13 23  1  0     0  0
 14 19  2  0     0  0
 14 20  1  0     0  0
 14 26  1  0     0  0
 15 21  1  0     0  0
 16 19  1  0     0  0
 17 20  2  0     0  0
 18 22  1  0     0  0
 21 22  2  0     0  0
 27 28  1  0     0  0
 28 29  1  0     0  0
 29 30  1  0     0  0
M  END
> <standard_type>
pIC50

> <# Confs.>
25

> <canonical_smiles>
ClC(N=C1CCCC)=C(CO)N1CC2=CC=C(C3=CC=CC=C3C(NOC)=O)C=C2

> <standard_relation>
=

> <Publication_ID>
nan

> <predicted_activity_value>
5.045757490560675

> <actual_activity_value>
5.3872161432802645

> <Compound>
19

> <standard_units>
nM

> hash
9076080683995789151

$$$$
19_
XXILIB    08252103443D 0   0.00000     0.00000

 30 32  0     1  0            999 V2000
    5.0277    1.4596   -0.0265 Cl  0  0  0  0  0  1           0  0  0
   -6.2849    1.1332    3.7441 O   0  0  0  0  0  2           0  0  0
   -4.4834   -0.7903    3.8673 O   0  0  0  0  0  2           0  0  0
    1.5405    2.8932    1.3688 O   0  0  0  0  0  2           0  0  0
    1.4530   -0.0000    0.0000 N   0  0  0  0  0  3           0  0  0
    3.5352   -0.7623   -0.0079 N   0  0  0  0  0  3           0  0  0
   -5.3190    1.1225    4.7722 N   0  0  0  0  0  3           0  0  0
    3.5486    0.6094   -0.0071 C   0  0  0  0  0  4           0  0  0
    2.2669   -1.1146    0.0000 C   0  0  0  0  0  4           0  0  0
    2.2623    1.1246    0.0085 C   0  0  0  0  0  4           0  0  0
   -2.0115   -0.0015    5.4340 C   0  0  0  0  0  4           0  0  0
   -1.5127   -0.0005    4.0537 C   0  0  0  0  0  4           0  0  0
   -3.3847   -0.0147    5.7705 C   0  0  0  0  0  4           0  0  0
   -0.5412   -0.0000    1.3970 C   0  0  0  0  0  4           0  0  0
   -1.0817   -0.0277    6.4937 C   0  0  0  0  0  4           0  0  0
   -1.2808    1.2047    3.3741 C   0  0  0  0  0  4           0  0  0
   -1.2500   -1.2051    3.3848 C   0  0  0  0  0  4           0  0  0
   -3.7936   -0.0593    7.1141 C   0  0  0  0  0  4           0  0  0
   -0.7987    1.2047    2.0618 C   0  0  0  0  0  4           0  0  0
   -0.7680   -1.2047    2.0728 C   0  0  0  0  0  4           0  0  0
   -1.4938   -0.0751    7.8274 C   0  0  0  0  0  4           0  0  0
   -2.8486   -0.0932    8.1365 C   0  0  0  0  0  4           0  0  0
   -4.4382    0.0802    4.7365 C   0  0  0  0  0  4           0  0  0
    1.7079    2.4956    0.0149 C   0  0  0  0  0  4           0  0  0
   -5.7620    1.8658    2.6423 C   0  0  0  0  0  4           0  0  0
    0.0000    0.0000    0.0000 C   0  0  0  0  0  4           0  0  0
    1.7822   -2.5218    0.0006 C   0  0  0  0  0  4           0  0  0
    2.5361   -3.3955   -0.9971 C   0  0  0  0  0  4           0  0  0
    2.4037   -2.8997   -2.4349 C   0  0  0  0  0  4           0  0  0
    3.1550   -3.7699   -3.4315 C   0  0  0  0  0  4           0  0  0
  1  8  1  0     0  0
  2  7  1  0     0  0
  2 25  1  0     0  0
  3 23  2  0     0  0
  4 24  1  0     0  0
  5  9  1  0     0  0
  5 10  1  0     0  0
  5 26  1  0     0  0
  6  8  1  0     0  0
  6  9  2  0     0  0
  7 23  1  0     0  0
  8 10  2  0     0  0
  9 27  1  0     0  0
 10 24  1  0     0  0
 11 12  1  0     0  0
 11 13  1  0     0  0
 11 15  2  0     0  0
 12 16  2  0     0  0
 12 17  1  0     0  0
 13 18  2  0     0  0
 13 23  1  0     0  0
 14 19  2  0     0  0
 14 20  1  0     0  0
 14 26  1  0     0  0
 15 21  1  0     0  0
 16 19  1  0     0  0
 17 20  2  0     0  0
 18 22  1  0     0  0
 21 22  2  0     0  0
 27 28  1  0     0  0
 28 29  1  0     0  0
 29 30  1  0     0  0
M  END
> <standard_type>
pIC50

> <# Confs.>
25

> <canonical_smiles>
ClC(N=C1CCCC)=C(CO)N1CC2=CC=C(C3=CC=CC=C3C(NOC)=O)C=C2

> <standard_relation>
=

> <Publication_ID>
nan

> <predicted_activity_value>
5.045757490560675

> <actual_activity_value>
5.3872161432802645

> <Compound>
19

> <standard_units>
nM

> hash
9076080683995789151

$$$$
19_
XXILIB    08252103443D 0   0.00000     0.00000

 30 32  0     1  0            999 V2000
    5.0277    1.4596   -0.0265 Cl  0  0  0  0  0  1           0  0  0
   -6.3155   -0.7523    3.6022 O   0  0  0  0  0  2           0  0  0
   -4.4641    1.0804    4.0193 O   0  0  0  0  0  2           0  0  0
    1.5405    2.8932    1.3688 O   0  0  0  0  0  2           0  0  0
    1.4530   -0.0000    0.0000 N   0  0  0  0  0  3           0  0  0
    3.5352   -0.7623   -0.0079 N   0  0  0  0  0  3           0  0  0
   -5.3456   -0.9318    4.6108 N   0  0  0  0  0  3           0  0  0
    3.5486    0.6094   -0.0071 C   0  0  0  0  0  4           0  0  0
    2.2669   -1.1146    0.0000 C   0  0  0  0  0  4           0  0  0
    2.2623    1.1246    0.0085 C   0  0  0  0  0  4           0  0  0
   -2.0115   -0.0015    5.4340 C   0  0  0  0  0  4           0  0  0
   -1.5127   -0.0005    4.0537 C   0  0  0  0  0  4           0  0  0
   -3.3847   -0.0147    5.7705 C   0  0  0  0  0  4           0  0  0
   -0.5412   -0.0000    1.3970 C   0  0  0  0  0  4           0  0  0
   -1.0817   -0.0277    6.4937 C   0  0  0  0  0  4           0  0  0
   -1.2808    1.2047    3.3741 C   0  0  0  0  0  4           0  0  0
   -1.2500   -1.2051    3.3848 C   0  0  0  0  0  4           0  0  0
   -3.7936   -0.0593    7.1141 C   0  0  0  0  0  4           0  0  0
   -0.7987    1.2047    2.0618 C   0  0  0  0  0  4           0  0  0
   -0.7680   -1.2047    2.0728 C   0  0  0  0  0  4           0  0  0
   -1.4938   -0.0751    7.8274 C   0  0  0  0  0  4           0  0  0
   -2.8486   -0.0932    8.1365 C   0  0  0  0  0  4           0  0  0
   -4.4382    0.0802    4.7365 C   0  0  0  0  0  4           0  0  0
    1.7079    2.4956    0.0149 C   0  0  0  0  0  4           0  0  0
   -5.8161   -1.3104    2.3926 C   0  0  0  0  0  4           0  0  0
    0.0000    0.0000    0.0000 C   0  0  0  0  0  4           0  0  0
    1.7822   -2.5218    0.0006 C   0  0  0  0  0  4           0  0  0
    2.5361   -3.3955   -0.9971 C   0  0  0  0  0  4           0  0  0
    2.4037   -2.8997   -2.4349 C   0  0  0  0  0  4           0  0  0
    3.1550   -3.7699   -3.4315 C   0  0  0  0  0  4           0  0  0
  1  8  1  0     0  0
  2  7  1  0     0  0
  2 25  1  0     0  0
  3 23  2  0     0  0
  4 24  1  0     0  0
  5  9  1  0     0  0
  5 10  1  0     0  0
  5 26  1  0     0  0
  6  8  1  0     0  0
  6  9  2  0     0  0
  7 23  1  0     0  0
  8 10  2  0     0  0
  9 27  1  0     0  0
 10 24  1  0     0  0
 11 12  1  0     0  0
 11 13  1  0     0  0
 11 15  2  0     0  0
 12 16  2  0     0  0
 12 17  1  0     0  0
 13 18  2  0     0  0
 13 23  1  0     0  0
 14 19  2  0     0  0
 14 20  1  0     0  0
 14 26  1  0     0  0
 15 21  1  0     0  0
 16 19  1  0     0  0
 17 20  2  0     0  0
 18 22  1  0     0  0
 21 22  2  0     0  0
 27 28  1  0     0  0
 28 29  1  0     0  0
 29 30  1  0     0  0
M  END
> <standard_type>
pIC50

> <# Confs.>
25

> <canonical_smiles>
ClC(N=C1CCCC)=C(CO)N1CC2=CC=C(C3=CC=CC=C3C(NOC)=O)C=C2

> <standard_relation>
=

> <Publication_ID>
nan

> <predicted_activity_value>
5.045757490560675

> <actual_activity_value>
5.3872161432802645

> <Compound>
19

> <standard_units>
nM

> hash
9076080683995789151

$$$$
19_
XXILIB    08252103443D 0   0.00000     0.00000

 30 32  0     1  0            999 V2000
    5.0277    1.4596   -0.0265 Cl  0  0  0  0  0  1           0  0  0
    2.3634    1.0498    6.3523 O   0  0  0  0  0  2           0  0  0
    0.1040    2.3755    6.0387 O   0  0  0  0  0  2           0  0  0
    1.5405    2.8932    1.3688 O   0  0  0  0  0  2           0  0  0
    1.4530   -0.0000    0.0000 N   0  0  0  0  0  3           0  0  0
    3.5352   -0.7623   -0.0079 N   0  0  0  0  0  3           0  0  0
    1.1231    0.4036    6.5373 N   0  0  0  0  0  3           0  0  0
    3.5486    0.6094   -0.0071 C   0  0  0  0  0  4           0  0  0
    2.2669   -1.1146    0.0000 C   0  0  0  0  0  4           0  0  0
    2.2623    1.1246    0.0085 C   0  0  0  0  0  4           0  0  0
   -2.0115   -0.0015    5.4340 C   0  0  0  0  0  4           0  0  0
   -1.5127   -0.0005    4.0537 C   0  0  0  0  0  4           0  0  0
   -1.3250    0.5974    6.5153 C   0  0  0  0  0  4           0  0  0
   -0.5412    0.0000    1.3970 C   0  0  0  0  0  4           0  0  0
   -3.2603   -0.5971    5.7060 C   0  0  0  0  0  4           0  0  0
   -1.2808    1.2047    3.3741 C   0  0  0  0  0  4           0  0  0
   -1.2500   -1.2051    3.3848 C   0  0  0  0  0  4           0  0  0
   -1.8808    0.5981    7.8058 C   0  0  0  0  0  4           0  0  0
   -0.7987    1.2047    2.0618 C   0  0  0  0  0  4           0  0  0
   -0.7680   -1.2047    2.0728 C   0  0  0  0  0  4           0  0  0
   -3.8095   -0.5907    6.9902 C   0  0  0  0  0  4           0  0  0
   -3.1210    0.0085    8.0381 C   0  0  0  0  0  4           0  0  0
    0.0213    1.1871    6.3488 C   0  0  0  0  0  4           0  0  0
    1.7079    2.4956    0.0149 C   0  0  0  0  0  4           0  0  0
    3.0654    0.3870    5.3075 C   0  0  0  0  0  4           0  0  0
    0.0000    0.0000    0.0000 C   0  0  0  0  0  4           0  0  0
    1.7822   -2.5218    0.0006 C   0  0  0  0  0  4           0  0  0
    2.5361   -3.3955   -0.9971 C   0  0  0  0  0  4           0  0  0
    2.4037   -2.8997   -2.4349 C   0  0  0  0  0  4           0  0  0
    3.1550   -3.7699   -3.4315 C   0  0  0  0  0  4           0  0  0
  1  8  1  0     0  0
  2  7  1  0     0  0
  2 25  1  0     0  0
  3 23  2  0     0  0
  4 24  1  0     0  0
  5  9  1  0     0  0
  5 10  1  0     0  0
  5 26  1  0     0  0
  6  8  1  0     0  0
  6  9  2  0     0  0
  7 23  1  0     0  0
  8 10  2  0     0  0
  9 27  1  0     0  0
 10 24  1  0     0  0
 11 12  1  0     0  0
 11 13  1  0     0  0
 11 15  2  0     0  0
 12 16  2  0     0  0
 12 17  1  0     0  0
 13 18  2  0     0  0
 13 23  1  0     0  0
 14 19  2  0     0  0
 14 20  1  0     0  0
 14 26  1  0     0  0
 15 21  1  0     0  0
 16 19  1  0     0  0
 17 20  2  0     0  0
 18 22  1  0     0  0
 21 22  2  0     0  0
 27 28  1  0     0  0
 28 29  1  0     0  0
 29 30  1  0     0  0
M  END
> <standard_type>
pIC50

> <# Confs.>
25

> <canonical_smiles>
ClC(N=C1CCCC)=C(CO)N1CC2=CC=C(C3=CC=CC=C3C(NOC)=O)C=C2

> <standard_relation>
=

> <Publication_ID>
nan

> <predicted_activity_value>
5.045757490560675

> <actual_activity_value>
5.3872161432802645

> <Compound>
19

> <standard_units>
nM

> hash
9076080683995789151

$$$$
19_
XXILIB    08252103443D 0   0.00000     0.00000

 30 32  0     1  0            999 V2000
    5.0277   -1.4596    0.0265 Cl  0  0  0  0  0  1           0  0  0
   -6.4095    0.5411    3.3646 O   0  0  0  0  0  2           0  0  0
   -4.1871    1.8200    3.9856 O   0  0  0  0  0  2           0  0  0
    1.5405   -2.8932   -1.3688 O   0  0  0  0  0  2           0  0  0
    1.4530    0.0000    0.0000 N   0  0  0  0  0  3           0  0  0
    3.5352    0.7623    0.0079 N   0  0  0  0  0  3           0  0  0
   -5.5648    0.0540    4.3840 N   0  0  0  0  0  3           0  0  0
    3.5486   -0.6094    0.0071 C   0  0  0  0  0  4           0  0  0
    2.2669    1.1146    0.0000 C   0  0  0  0  0  4           0  0  0
    2.2623   -1.1246   -0.0085 C   0  0  0  0  0  4           0  0  0
   -2.1492    0.0627    5.3807 C   0  0  0  0  0  4           0  0  0
   -1.5978    0.0383    4.0207 C   0  0  0  0  0  4           0  0  0
   -3.4983    0.3680    5.6734 C   0  0  0  0  0  4           0  0  0
   -0.5412    0.0000    1.3970 C   0  0  0  0  0  4           0  0  0
   -1.3080   -0.2701    6.4623 C   0  0  0  0  0  4           0  0  0
   -2.1140   -0.8346    3.0513 C   0  0  0  0  0  4           0  0  0
   -0.5462    0.8925    3.6574 C   0  0  0  0  0  4           0  0  0
   -3.9716    0.3307    6.9959 C   0  0  0  0  0  4           0  0  0
   -1.5930   -0.8519    1.7541 C   0  0  0  0  0  4           0  0  0
   -0.0255    0.8749    2.3604 C   0  0  0  0  0  4           0  0  0
   -1.7846   -0.3087    7.7746 C   0  0  0  0  0  4           0  0  0
   -3.1157   -0.0108    8.0402 C   0  0  0  0  0  4           0  0  0
   -4.4436    0.7962    4.6192 C   0  0  0  0  0  4           0  0  0
    1.7079   -2.4956   -0.0149 C   0  0  0  0  0  4           0  0  0
   -6.5158   -0.4542    2.3536 C   0  0  0  0  0  4           0  0  0
    0.0000    0.0000    0.0000 C   0  0  0  0  0  4           0  0  0
    1.7822    2.5218   -0.0006 C   0  0  0  0  0  4           0  0  0
    2.5361    3.3955    0.9971 C   0  0  0  0  0  4           0  0  0
    2.0464    4.8414    1.0045 C   0  0  0  0  0  4           0  0  0
    2.7972    5.7145    1.9990 C   0  0  0  0  0  4           0  0  0
  1  8  1  0     0  0
  2  7  1  0     0  0
  2 25  1  0     0  0
  3 23  2  0     0  0
  4 24  1  0     0  0
  5  9  1  0     0  0
  5 10  1  0     0  0
  5 26  1  0     0  0
  6  8  1  0     0  0
  6  9  2  0     0  0
  7 23  1  0     0  0
  8 10  2  0     0  0
  9 27  1  0     0  0
 10 24  1  0     0  0
 11 12  1  0     0  0
 11 13  1  0     0  0
 11 15  2  0     0  0
 12 16  2  0     0  0
 12 17  1  0     0  0
 13 18  2  0     0  0
 13 23  1  0     0  0
 14 19  2  0     0  0
 14 20  1  0     0  0
 14 26  1  0     0  0
 15 21  1  0     0  0
 16 19  1  0     0  0
 17 20  2  0     0  0
 18 22  1  0     0  0
 21 22  2  0     0  0
 27 28  1  0     0  0
 28 29  1  0     0  0
 29 30  1  0     0  0
M  END
> <standard_type>
pIC50

> <# Confs.>
25

> <canonical_smiles>
ClC(N=C1CCCC)=C(CO)N1CC2=CC=C(C3=CC=CC=C3C(NOC)=O)C=C2

> <standard_relation>
=

> <Publication_ID>
nan

> <predicted_activity_value>
5.045757490560675

> <actual_activity_value>
5.3872161432802645

> <Compound>
19

> <standard_units>
nM

> hash
9076080683995789151

$$$$
19_
XXILIB    08252103443D 0   0.00000     0.00000

 30 32  0     1  0            999 V2000
    5.0277    1.4596   -0.0265 Cl  0  0  0  0  0  1           0  0  0
    1.5268    2.9842    6.4388 O   0  0  0  0  0  2           0  0  0
    0.9364    0.4559    5.9703 O   0  0  0  0  0  2           0  0  0
    1.5405    2.8932    1.3688 O   0  0  0  0  0  2           0  0  0
    1.4530   -0.0000    0.0000 N   0  0  0  0  0  3           0  0  0
    3.5352   -0.7623   -0.0079 N   0  0  0  0  0  3           0  0  0
    0.2102    2.5113    6.6211 N   0  0  0  0  0  3           0  0  0
    3.5486    0.6094   -0.0071 C   0  0  0  0  0  4           0  0  0
    2.2669   -1.1146    0.0000 C   0  0  0  0  0  4           0  0  0
    2.2623    1.1246    0.0085 C   0  0  0  0  0  4           0  0  0
   -2.0115   -0.0015    5.4340 C   0  0  0  0  0  4           0  0  0
   -1.5127   -0.0005    4.0537 C   0  0  0  0  0  4           0  0  0
   -1.3250    0.5974    6.5153 C   0  0  0  0  0  4           0  0  0
   -0.5412    0.0000    1.3970 C   0  0  0  0  0  4           0  0  0
   -3.2603   -0.5971    5.7060 C   0  0  0  0  0  4           0  0  0
   -1.2808    1.2047    3.3741 C   0  0  0  0  0  4           0  0  0
   -1.2500   -1.2051    3.3848 C   0  0  0  0  0  4           0  0  0
   -1.8808    0.5981    7.8058 C   0  0  0  0  0  4           0  0  0
   -0.7987    1.2047    2.0618 C   0  0  0  0  0  4           0  0  0
   -0.7680   -1.2047    2.0728 C   0  0  0  0  0  4           0  0  0
   -3.8095   -0.5907    6.9902 C   0  0  0  0  0  4           0  0  0
   -3.1210    0.0085    8.0381 C   0  0  0  0  0  4           0  0  0
    0.0213    1.1871    6.3488 C   0  0  0  0  0  4           0  0  0
    1.7079    2.4956    0.0149 C   0  0  0  0  0  4           0  0  0
    1.6602    3.4400    5.0978 C   0  0  0  0  0  4           0  0  0
    0.0000    0.0000    0.0000 C   0  0  0  0  0  4           0  0  0
    1.7822   -2.5218    0.0006 C   0  0  0  0  0  4           0  0  0
    2.5361   -3.3955   -0.9971 C   0  0  0  0  0  4           0  0  0
    2.0464   -4.8414   -1.0045 C   0  0  0  0  0  4           0  0  0
    2.7972   -5.7145   -1.9990 C   0  0  0  0  0  4           0  0  0
  1  8  1  0     0  0
  2  7  1  0     0  0
  2 25  1  0     0  0
  3 23  2  0     0  0
  4 24  1  0     0  0
  5  9  1  0     0  0
  5 10  1  0     0  0
  5 26  1  0     0  0
  6  8  1  0     0  0
  6  9  2  0     0  0
  7 23  1  0     0  0
  8 10  2  0     0  0
  9 27  1  0     0  0
 10 24  1  0     0  0
 11 12  1  0     0  0
 11 13  1  0     0  0
 11 15  2  0     0  0
 12 16  2  0     0  0
 12 17  1  0     0  0
 13 18  2  0     0  0
 13 23  1  0     0  0
 14 19  2  0     0  0
 14 20  1  0     0  0
 14 26  1  0     0  0
 15 21  1  0     0  0
 16 19  1  0     0  0
 17 20  2  0     0  0
 18 22  1  0     0  0
 21 22  2  0     0  0
 27 28  1  0     0  0
 28 29  1  0     0  0
 29 30  1  0     0  0
M  END
> <standard_type>
pIC50

> <# Confs.>
25

> <canonical_smiles>
ClC(N=C1CCCC)=C(CO)N1CC2=CC=C(C3=CC=CC=C3C(NOC)=O)C=C2

> <standard_relation>
=

> <Publication_ID>
nan

> <predicted_activity_value>
5.045757490560675

> <actual_activity_value>
5.3872161432802645

> <Compound>
19

> <standard_units>
nM

> hash
9076080683995789151

$$$$
19_
XXILIB    08252103443D 0   0.00000     0.00000

 30 32  0     1  0            999 V2000
    5.0277    1.4596   -0.0265 Cl  0  0  0  0  0  1           0  0  0
    1.5268    2.9842    6.4388 O   0  0  0  0  0  2           0  0  0
    0.9364    0.4559    5.9703 O   0  0  0  0  0  2           0  0  0
    1.5405    2.8932    1.3688 O   0  0  0  0  0  2           0  0  0
    1.4530   -0.0000    0.0000 N   0  0  0  0  0  3           0  0  0
    3.5352   -0.7623   -0.0079 N   0  0  0  0  0  3           0  0  0
    0.2102    2.5113    6.6211 N   0  0  0  0  0  3           0  0  0
    3.5486    0.6094   -0.0071 C   0  0  0  0  0  4           0  0  0
    2.2669   -1.1146    0.0000 C   0  0  0  0  0  4           0  0  0
    2.2623    1.1246    0.0085 C   0  0  0  0  0  4           0  0  0
   -2.0115   -0.0015    5.4340 C   0  0  0  0  0  4           0  0  0
   -1.5127   -0.0005    4.0537 C   0  0  0  0  0  4           0  0  0
   -1.3250    0.5974    6.5153 C   0  0  0  0  0  4           0  0  0
   -0.5412    0.0000    1.3970 C   0  0  0  0  0  4           0  0  0
   -3.2603   -0.5971    5.7060 C   0  0  0  0  0  4           0  0  0
   -1.2808    1.2047    3.3741 C   0  0  0  0  0  4           0  0  0
   -1.2500   -1.2051    3.3848 C   0  0  0  0  0  4           0  0  0
   -1.8808    0.5981    7.8058 C   0  0  0  0  0  4           0  0  0
   -0.7987    1.2047    2.0618 C   0  0  0  0  0  4           0  0  0
   -0.7680   -1.2047    2.0728 C   0  0  0  0  0  4           0  0  0
   -3.8095   -0.5907    6.9902 C   0  0  0  0  0  4           0  0  0
   -3.1210    0.0085    8.0381 C   0  0  0  0  0  4           0  0  0
    0.0213    1.1871    6.3488 C   0  0  0  0  0  4           0  0  0
    1.7079    2.4956    0.0149 C   0  0  0  0  0  4           0  0  0
    1.6602    3.4400    5.0978 C   0  0  0  0  0  4           0  0  0
    0.0000    0.0000    0.0000 C   0  0  0  0  0  4           0  0  0
    1.7822   -2.5218    0.0006 C   0  0  0  0  0  4           0  0  0
    2.5361   -3.3955   -0.9971 C   0  0  0  0  0  4           0  0  0
    2.4037   -2.8997   -2.4349 C   0  0  0  0  0  4           0  0  0
    3.1550   -3.7699   -3.4315 C   0  0  0  0  0  4           0  0  0
  1  8  1  0     0  0
  2  7  1  0     0  0
  2 25  1  0     0  0
  3 23  2  0     0  0
  4 24  1  0     0  0
  5  9  1  0     0  0
  5 10  1  0     0  0
  5 26  1  0     0  0
  6  8  1  0     0  0
  6  9  2  0     0  0
  7 23  1  0     0  0
  8 10  2  0     0  0
  9 27  1  0     0  0
 10 24  1  0     0  0
 11 12  1  0     0  0
 11 13  1  0     0  0
 11 15  2  0     0  0
 12 16  2  0     0  0
 12 17  1  0     0  0
 13 18  2  0     0  0
 13 23  1  0     0  0
 14 19  2  0     0  0
 14 20  1  0     0  0
 14 26  1  0     0  0
 15 21  1  0     0  0
 16 19  1  0     0  0
 17 20  2  0     0  0
 18 22  1  0     0  0
 21 22  2  0     0  0
 27 28  1  0     0  0
 28 29  1  0     0  0
 29 30  1  0     0  0
M  END
> <standard_type>
pIC50

> <# Confs.>
25

> <canonical_smiles>
ClC(N=C1CCCC)=C(CO)N1CC2=CC=C(C3=CC=CC=C3C(NOC)=O)C=C2

> <standard_relation>
=

> <Publication_ID>
nan

> <predicted_activity_value>
5.045757490560675

> <actual_activity_value>
5.3872161432802645

> <Compound>
19

> <standard_units>
nM

> hash
9076080683995789151

$$$$
19_
XXILIB    08252103443D 0   0.00000     0.00000

 30 32  0     1  0            999 V2000
    5.0277    1.4596   -0.0265 Cl  0  0  0  0  0  1           0  0  0
   -5.1731    3.2779    4.1475 O   0  0  0  0  0  2           0  0  0
   -4.4949    0.7441    3.8643 O   0  0  0  0  0  2           0  0  0
    1.5405    2.8932    1.3688 O   0  0  0  0  0  2           0  0  0
    1.4530   -0.0000    0.0000 N   0  0  0  0  0  3           0  0  0
    3.5352   -0.7623   -0.0079 N   0  0  0  0  0  3           0  0  0
   -4.3703    2.6396    5.1161 N   0  0  0  0  0  3           0  0  0
    3.5486    0.6094   -0.0071 C   0  0  0  0  0  4           0  0  0
    2.2669   -1.1146    0.0000 C   0  0  0  0  0  4           0  0  0
    2.2623    1.1246    0.0085 C   0  0  0  0  0  4           0  0  0
   -2.0115   -0.0015    5.4340 C   0  0  0  0  0  4           0  0  0
   -1.5127   -0.0005    4.0537 C   0  0  0  0  0  4           0  0  0
   -3.2425    0.5755    5.8224 C   0  0  0  0  0  4           0  0  0
   -0.5412   -0.0000    1.3970 C   0  0  0  0  0  4           0  0  0
   -1.2492   -0.6416    6.4327 C   0  0  0  0  0  4           0  0  0
   -1.2808    1.2047    3.3741 C   0  0  0  0  0  4           0  0  0
   -1.2500   -1.2051    3.3848 C   0  0  0  0  0  4           0  0  0
   -3.6809    0.5008    7.1552 C   0  0  0  0  0  4           0  0  0
   -0.7987    1.2047    2.0618 C   0  0  0  0  0  4           0  0  0
   -0.7680   -1.2047    2.0728 C   0  0  0  0  0  4           0  0  0
   -1.6914   -0.7156    7.7555 C   0  0  0  0  0  4           0  0  0
   -2.9072   -0.1468    8.1153 C   0  0  0  0  0  4           0  0  0
   -4.0825    1.3289    4.8659 C   0  0  0  0  0  4           0  0  0
    1.7079    2.4956    0.0149 C   0  0  0  0  0  4           0  0  0
   -6.5380    3.1098    4.5116 C   0  0  0  0  0  4           0  0  0
    0.0000    0.0000    0.0000 C   0  0  0  0  0  4           0  0  0
    1.7822   -2.5218    0.0006 C   0  0  0  0  0  4           0  0  0
    2.5361   -3.3955   -0.9971 C   0  0  0  0  0  4           0  0  0
    2.0464   -4.8414   -1.0045 C   0  0  0  0  0  4           0  0  0
    2.7972   -5.7145   -1.9990 C   0  0  0  0  0  4           0  0  0
  1  8  1  0     0  0
  2  7  1  0     0  0
  2 25  1  0     0  0
  3 23  2  0     0  0
  4 24  1  0     0  0
  5  9  1  0     0  0
  5 10  1  0     0  0
  5 26  1  0     0  0
  6  8  1  0     0  0
  6  9  2  0     0  0
  7 23  1  0     0  0
  8 10  2  0     0  0
  9 27  1  0     0  0
 10 24  1  0     0  0
 11 12  1  0     0  0
 11 13  1  0     0  0
 11 15  2  0     0  0
 12 16  2  0     0  0
 12 17  1  0     0  0
 13 18  2  0     0  0
 13 23  1  0     0  0
 14 19  2  0     0  0
 14 20  1  0     0  0
 14 26  1  0     0  0
 15 21  1  0     0  0
 16 19  1  0     0  0
 17 20  2  0     0  0
 18 22  1  0     0  0
 21 22  2  0     0  0
 27 28  1  0     0  0
 28 29  1  0     0  0
 29 30  1  0     0  0
M  END
> <standard_type>
pIC50

> <# Confs.>
25

> <canonical_smiles>
ClC(N=C1CCCC)=C(CO)N1CC2=CC=C(C3=CC=CC=C3C(NOC)=O)C=C2

> <standard_relation>
=

> <Publication_ID>
nan

> <predicted_activity_value>
5.045757490560675

> <actual_activity_value>
5.3872161432802645

> <Compound>
19

> <standard_units>
nM

> hash
9076080683995789151

$$$$
19_
XXILIB    08252103443D 0   0.00000     0.00000

 30 32  0     1  0            999 V2000
    5.0277    1.4596   -0.0265 Cl  0  0  0  0  0  1           0  0  0
   -5.1731    3.2779    4.1475 O   0  0  0  0  0  2           0  0  0
   -4.4949    0.7441    3.8643 O   0  0  0  0  0  2           0  0  0
    1.5405    2.8932    1.3688 O   0  0  0  0  0  2           0  0  0
    1.4530   -0.0000    0.0000 N   0  0  0  0  0  3           0  0  0
    3.5352   -0.7623   -0.0079 N   0  0  0  0  0  3           0  0  0
   -4.3703    2.6396    5.1161 N   0  0  0  0  0  3           0  0  0
    3.5486    0.6094   -0.0071 C   0  0  0  0  0  4           0  0  0
    2.2669   -1.1146    0.0000 C   0  0  0  0  0  4           0  0  0
    2.2623    1.1246    0.0085 C   0  0  0  0  0  4           0  0  0
   -2.0115   -0.0015    5.4340 C   0  0  0  0  0  4           0  0  0
   -1.5127   -0.0005    4.0537 C   0  0  0  0  0  4           0  0  0
   -3.2425    0.5755    5.8224 C   0  0  0  0  0  4           0  0  0
   -0.5412   -0.0000    1.3970 C   0  0  0  0  0  4           0  0  0
   -1.2492   -0.6416    6.4327 C   0  0  0  0  0  4           0  0  0
   -1.2808    1.2047    3.3741 C   0  0  0  0  0  4           0  0  0
   -1.2500   -1.2051    3.3848 C   0  0  0  0  0  4           0  0  0
   -3.6809    0.5008    7.1552 C   0  0  0  0  0  4           0  0  0
   -0.7987    1.2047    2.0618 C   0  0  0  0  0  4           0  0  0
   -0.7680   -1.2047    2.0728 C   0  0  0  0  0  4           0  0  0
   -1.6914   -0.7156    7.7555 C   0  0  0  0  0  4           0  0  0
   -2.9072   -0.1468    8.1153 C   0  0  0  0  0  4           0  0  0
   -4.0825    1.3289    4.8659 C   0  0  0  0  0  4           0  0  0
    1.7079    2.4956    0.0149 C   0  0  0  0  0  4           0  0  0
   -6.5380    3.1098    4.5116 C   0  0  0  0  0  4           0  0  0
    0.0000    0.0000    0.0000 C   0  0  0  0  0  4           0  0  0
    1.7822   -2.5218    0.0006 C   0  0  0  0  0  4           0  0  0
    2.5361   -3.3955   -0.9971 C   0  0  0  0  0  4           0  0  0
    2.4037   -2.8997   -2.4349 C   0  0  0  0  0  4           0  0  0
    3.1550   -3.7699   -3.4315 C   0  0  0  0  0  4           0  0  0
  1  8  1  0     0  0
  2  7  1  0     0  0
  2 25  1  0     0  0
  3 23  2  0     0  0
  4 24  1  0     0  0
  5  9  1  0     0  0
  5 10  1  0     0  0
  5 26  1  0     0  0
  6  8  1  0     0  0
  6  9  2  0     0  0
  7 23  1  0     0  0
  8 10  2  0     0  0
  9 27  1  0     0  0
 10 24  1  0     0  0
 11 12  1  0     0  0
 11 13  1  0     0  0
 11 15  2  0     0  0
 12 16  2  0     0  0
 12 17  1  0     0  0
 13 18  2  0     0  0
 13 23  1  0     0  0
 14 19  2  0     0  0
 14 20  1  0     0  0
 14 26  1  0     0  0
 15 21  1  0     0  0
 16 19  1  0     0  0
 17 20  2  0     0  0
 18 22  1  0     0  0
 21 22  2  0     0  0
 27 28  1  0     0  0
 28 29  1  0     0  0
 29 30  1  0     0  0
M  END
> <standard_type>
pIC50

> <# Confs.>
25

> <canonical_smiles>
ClC(N=C1CCCC)=C(CO)N1CC2=CC=C(C3=CC=CC=C3C(NOC)=O)C=C2

> <standard_relation>
=

> <Publication_ID>
nan

> <predicted_activity_value>
5.045757490560675

> <actual_activity_value>
5.3872161432802645

> <Compound>
19

> <standard_units>
nM

> hash
9076080683995789151

$$$$
19_
XXILIB    08252103443D 0   0.00000     0.00000

 30 32  0     1  0            999 V2000
    5.0277   -1.4596    0.0265 Cl  0  0  0  0  0  1           0  0  0
   -6.4095    0.5411    3.3646 O   0  0  0  0  0  2           0  0  0
   -4.1871    1.8200    3.9856 O   0  0  0  0  0  2           0  0  0
    1.5405   -2.8932   -1.3688 O   0  0  0  0  0  2           0  0  0
    1.4530    0.0000    0.0000 N   0  0  0  0  0  3           0  0  0
    3.5352    0.7623    0.0079 N   0  0  0  0  0  3           0  0  0
   -5.5648    0.0540    4.3840 N   0  0  0  0  0  3           0  0  0
    3.5486   -0.6094    0.0071 C   0  0  0  0  0  4           0  0  0
    2.2669    1.1146   -0.0000 C   0  0  0  0  0  4           0  0  0
    2.2623   -1.1246   -0.0085 C   0  0  0  0  0  4           0  0  0
   -2.1492    0.0627    5.3807 C   0  0  0  0  0  4           0  0  0
   -1.5978    0.0383    4.0207 C   0  0  0  0  0  4           0  0  0
   -3.4983    0.3680    5.6734 C   0  0  0  0  0  4           0  0  0
   -0.5412    0.0000    1.3970 C   0  0  0  0  0  4           0  0  0
   -1.3080   -0.2701    6.4623 C   0  0  0  0  0  4           0  0  0
   -2.1140   -0.8346    3.0513 C   0  0  0  0  0  4           0  0  0
   -0.5462    0.8925    3.6574 C   0  0  0  0  0  4           0  0  0
   -3.9716    0.3307    6.9959 C   0  0  0  0  0  4           0  0  0
   -1.5930   -0.8519    1.7541 C   0  0  0  0  0  4           0  0  0
   -0.0255    0.8749    2.3604 C   0  0  0  0  0  4           0  0  0
   -1.7846   -0.3087    7.7746 C   0  0  0  0  0  4           0  0  0
   -3.1157   -0.0108    8.0402 C   0  0  0  0  0  4           0  0  0
   -4.4436    0.7962    4.6192 C   0  0  0  0  0  4           0  0  0
    1.7079   -2.4956   -0.0149 C   0  0  0  0  0  4           0  0  0
   -6.5158   -0.4542    2.3536 C   0  0  0  0  0  4           0  0  0
    0.0000    0.0000    0.0000 C   0  0  0  0  0  4           0  0  0
    1.7822    2.5218   -0.0006 C   0  0  0  0  0  4           0  0  0
    2.5369    3.3949   -0.9983 C   0  0  0  0  0  4           0  0  0
    2.0472    4.8408   -1.0068 C   0  0  0  0  0  4           0  0  0
    2.7987    5.7133   -2.0012 C   0  0  0  0  0  4           0  0  0
  1  8  1  0     0  0
  2  7  1  0     0  0
  2 25  1  0     0  0
  3 23  2  0     0  0
  4 24  1  0     0  0
  5  9  1  0     0  0
  5 10  1  0     0  0
  5 26  1  0     0  0
  6  8  1  0     0  0
  6  9  2  0     0  0
  7 23  1  0     0  0
  8 10  2  0     0  0
  9 27  1  0     0  0
 10 24  1  0     0  0
 11 12  1  0     0  0
 11 13  1  0     0  0
 11 15  2  0     0  0
 12 16  2  0     0  0
 12 17  1  0     0  0
 13 18  2  0     0  0
 13 23  1  0     0  0
 14 19  2  0     0  0
 14 20  1  0     0  0
 14 26  1  0     0  0
 15 21  1  0     0  0
 16 19  1  0     0  0
 17 20  2  0     0  0
 18 22  1  0     0  0
 21 22  2  0     0  0
 27 28  1  0     0  0
 28 29  1  0     0  0
 29 30  1  0     0  0
M  END
> <standard_type>
pIC50

> <# Confs.>
25

> <canonical_smiles>
ClC(N=C1CCCC)=C(CO)N1CC2=CC=C(C3=CC=CC=C3C(NOC)=O)C=C2

> <standard_relation>
=

> <Publication_ID>
nan

> <predicted_activity_value>
5.045757490560675

> <actual_activity_value>
5.3872161432802645

> <Compound>
19

> <standard_units>
nM

> hash
9076080683995789151

$$$$
19_
XXILIB    08252103443D 0   0.00000     0.00000

 30 32  0     1  0            999 V2000
    5.0277   -1.4596    0.0265 Cl  0  0  0  0  0  1           0  0  0
   -6.4095    0.5411    3.3646 O   0  0  0  0  0  2           0  0  0
   -4.1871    1.8200    3.9856 O   0  0  0  0  0  2           0  0  0
    1.5405   -2.8932   -1.3688 O   0  0  0  0  0  2           0  0  0
    1.4530    0.0000    0.0000 N   0  0  0  0  0  3           0  0  0
    3.5352    0.7623    0.0079 N   0  0  0  0  0  3           0  0  0
   -5.5648    0.0540    4.3840 N   0  0  0  0  0  3           0  0  0
    3.5486   -0.6094    0.0071 C   0  0  0  0  0  4           0  0  0
    2.2669    1.1146   -0.0000 C   0  0  0  0  0  4           0  0  0
    2.2623   -1.1246   -0.0085 C   0  0  0  0  0  4           0  0  0
   -2.1492    0.0627    5.3807 C   0  0  0  0  0  4           0  0  0
   -1.5978    0.0383    4.0207 C   0  0  0  0  0  4           0  0  0
   -3.4983    0.3680    5.6734 C   0  0  0  0  0  4           0  0  0
   -0.5412    0.0000    1.3970 C   0  0  0  0  0  4           0  0  0
   -1.3080   -0.2701    6.4623 C   0  0  0  0  0  4           0  0  0
   -2.1140   -0.8346    3.0513 C   0  0  0  0  0  4           0  0  0
   -0.5462    0.8925    3.6574 C   0  0  0  0  0  4           0  0  0
   -3.9716    0.3307    6.9959 C   0  0  0  0  0  4           0  0  0
   -1.5930   -0.8519    1.7541 C   0  0  0  0  0  4           0  0  0
   -0.0255    0.8749    2.3604 C   0  0  0  0  0  4           0  0  0
   -1.7846   -0.3087    7.7746 C   0  0  0  0  0  4           0  0  0
   -3.1157   -0.0108    8.0402 C   0  0  0  0  0  4           0  0  0
   -4.4436    0.7962    4.6192 C   0  0  0  0  0  4           0  0  0
    1.7079   -2.4956   -0.0149 C   0  0  0  0  0  4           0  0  0
   -6.5158   -0.4542    2.3536 C   0  0  0  0  0  4           0  0  0
    0.0000    0.0000    0.0000 C   0  0  0  0  0  4           0  0  0
    1.7822    2.5218   -0.0006 C   0  0  0  0  0  4           0  0  0
    2.5369    3.3949   -0.9983 C   0  0  0  0  0  4           0  0  0
    2.4056    2.8983   -2.4358 C   0  0  0  0  0  4           0  0  0
    3.1577    3.7679   -3.4323 C   0  0  0  0  0  4           0  0  0
  1  8  1  0     0  0
  2  7  1  0     0  0
  2 25  1  0     0  0
  3 23  2  0     0  0
  4 24  1  0     0  0
  5  9  1  0     0  0
  5 10  1  0     0  0
  5 26  1  0     0  0
  6  8  1  0     0  0
  6  9  2  0     0  0
  7 23  1  0     0  0
  8 10  2  0     0  0
  9 27  1  0     0  0
 10 24  1  0     0  0
 11 12  1  0     0  0
 11 13  1  0     0  0
 11 15  2  0     0  0
 12 16  2  0     0  0
 12 17  1  0     0  0
 13 18  2  0     0  0
 13 23  1  0     0  0
 14 19  2  0     0  0
 14 20  1  0     0  0
 14 26  1  0     0  0
 15 21  1  0     0  0
 16 19  1  0     0  0
 17 20  2  0     0  0
 18 22  1  0     0  0
 21 22  2  0     0  0
 27 28  1  0     0  0
 28 29  1  0     0  0
 29 30  1  0     0  0
M  END
> <standard_type>
pIC50

> <# Confs.>
25

> <canonical_smiles>
ClC(N=C1CCCC)=C(CO)N1CC2=CC=C(C3=CC=CC=C3C(NOC)=O)C=C2

> <standard_relation>
=

> <Publication_ID>
nan

> <predicted_activity_value>
5.045757490560675

> <actual_activity_value>
5.3872161432802645

> <Compound>
19

> <standard_units>
nM

> hash
9076080683995789151

$$$$
19_
XXILIB    08252103443D 0   0.00000     0.00000

 30 32  0     1  0            999 V2000
    5.0277   -1.4596    0.0265 Cl  0  0  0  0  0  1           0  0  0
    2.4689    0.7497    6.7775 O   0  0  0  0  0  2           0  0  0
    0.7794   -1.0827    5.9124 O   0  0  0  0  0  2           0  0  0
    2.4278   -3.2538   -0.9771 O   0  0  0  0  0  2           0  0  0
    1.4530    0.0000    0.0000 N   0  0  0  0  0  3           0  0  0
    3.5352    0.7623    0.0079 N   0  0  0  0  0  3           0  0  0
    1.0783    0.9282    6.9335 N   0  0  0  0  0  3           0  0  0
    3.5486   -0.6094    0.0071 C   0  0  0  0  0  4           0  0  0
    2.2669    1.1146   -0.0000 C   0  0  0  0  0  4           0  0  0
    2.2623   -1.1246   -0.0085 C   0  0  0  0  0  4           0  0  0
   -2.0115   -0.0015    5.4340 C   0  0  0  0  0  4           0  0  0
   -1.5127   -0.0005    4.0537 C   0  0  0  0  0  4           0  0  0
   -1.1706    0.0105    6.5706 C   0  0  0  0  0  4           0  0  0
   -0.5412   -0.0000    1.3970 C   0  0  0  0  0  4           0  0  0
   -3.4040    0.0236    5.6546 C   0  0  0  0  0  4           0  0  0
   -1.2808    1.2047    3.3741 C   0  0  0  0  0  4           0  0  0
   -1.2500   -1.2051    3.3848 C   0  0  0  0  0  4           0  0  0
   -1.7150    0.0530    7.8653 C   0  0  0  0  0  4           0  0  0
   -0.7987    1.2047    2.0618 C   0  0  0  0  0  4           0  0  0
   -0.7680   -1.2047    2.0728 C   0  0  0  0  0  4           0  0  0
   -3.9396    0.0691    6.9437 C   0  0  0  0  0  4           0  0  0
   -3.0953    0.0861    8.0475 C   0  0  0  0  0  4           0  0  0
    0.3006   -0.0835    6.4487 C   0  0  0  0  0  4           0  0  0
    1.7079   -2.4956   -0.0149 C   0  0  0  0  0  4           0  0  0
    2.8578    1.3096    5.5289 C   0  0  0  0  0  4           0  0  0
    0.0000   -0.0000    0.0000 C   0  0  0  0  0  4           0  0  0
    1.7822    2.5218   -0.0006 C   0  0  0  0  0  4           0  0  0
    2.5369    3.3949   -0.9983 C   0  0  0  0  0  4           0  0  0
    2.0472    4.8408   -1.0068 C   0  0  0  0  0  4           0  0  0
    2.7987    5.7133   -2.0012 C   0  0  0  0  0  4           0  0  0
  1  8  1  0     0  0
  2  7  1  0     0  0
  2 25  1  0     0  0
  3 23  2  0     0  0
  4 24  1  0     0  0
  5  9  1  0     0  0
  5 10  1  0     0  0
  5 26  1  0     0  0
  6  8  1  0     0  0
  6  9  2  0     0  0
  7 23  1  0     0  0
  8 10  2  0     0  0
  9 27  1  0     0  0
 10 24  1  0     0  0
 11 12  1  0     0  0
 11 13  1  0     0  0
 11 15  2  0     0  0
 12 16  2  0     0  0
 12 17  1  0     0  0
 13 18  2  0     0  0
 13 23  1  0     0  0
 14 19  2  0     0  0
 14 20  1  0     0  0
 14 26  1  0     0  0
 15 21  1  0     0  0
 16 19  1  0     0  0
 17 20  2  0     0  0
 18 22  1  0     0  0
 21 22  2  0     0  0
 27 28  1  0     0  0
 28 29  1  0     0  0
 29 30  1  0     0  0
M  END
> <standard_type>
pIC50

> <# Confs.>
25

> <canonical_smiles>
ClC(N=C1CCCC)=C(CO)N1CC2=CC=C(C3=CC=CC=C3C(NOC)=O)C=C2

> <standard_relation>
=

> <Publication_ID>
nan

> <predicted_activity_value>
5.045757490560675

> <actual_activity_value>
5.3872161432802645

> <Compound>
19

> <standard_units>
nM

> hash
9076080683995789151

$$$$
19_
XXILIB    08252103443D 0   0.00000     0.00000

 30 32  0     1  0            999 V2000
    5.0277    1.4596   -0.0265 Cl  0  0  0  0  0  1           0  0  0
   -6.2849    1.1332    3.7441 O   0  0  0  0  0  2           0  0  0
   -4.4834   -0.7903    3.8673 O   0  0  0  0  0  2           0  0  0
    1.5405    2.8932    1.3688 O   0  0  0  0  0  2           0  0  0
    1.4530   -0.0000   -0.0000 N   0  0  0  0  0  3           0  0  0
    3.5352   -0.7623   -0.0079 N   0  0  0  0  0  3           0  0  0
   -5.3190    1.1225    4.7722 N   0  0  0  0  0  3           0  0  0
    3.5486    0.6094   -0.0071 C   0  0  0  0  0  4           0  0  0
    2.2669   -1.1146    0.0000 C   0  0  0  0  0  4           0  0  0
    2.2623    1.1246    0.0085 C   0  0  0  0  0  4           0  0  0
   -2.0115   -0.0015    5.4340 C   0  0  0  0  0  4           0  0  0
   -1.5127   -0.0005    4.0537 C   0  0  0  0  0  4           0  0  0
   -3.3847   -0.0147    5.7705 C   0  0  0  0  0  4           0  0  0
   -0.5412   -0.0000    1.3970 C   0  0  0  0  0  4           0  0  0
   -1.0817   -0.0277    6.4937 C   0  0  0  0  0  4           0  0  0
   -1.2808    1.2047    3.3741 C   0  0  0  0  0  4           0  0  0
   -1.2500   -1.2051    3.3848 C   0  0  0  0  0  4           0  0  0
   -3.7936   -0.0593    7.1141 C   0  0  0  0  0  4           0  0  0
   -0.7987    1.2047    2.0618 C   0  0  0  0  0  4           0  0  0
   -0.7680   -1.2047    2.0728 C   0  0  0  0  0  4           0  0  0
   -1.4938   -0.0751    7.8274 C   0  0  0  0  0  4           0  0  0
   -2.8486   -0.0932    8.1365 C   0  0  0  0  0  4           0  0  0
   -4.4382    0.0802    4.7365 C   0  0  0  0  0  4           0  0  0
    1.7079    2.4956    0.0149 C   0  0  0  0  0  4           0  0  0
   -7.4247    0.4076    4.1891 C   0  0  0  0  0  4           0  0  0
    0.0000    0.0000    0.0000 C   0  0  0  0  0  4           0  0  0
    1.7822   -2.5218    0.0006 C   0  0  0  0  0  4           0  0  0
    2.9272   -3.5298    0.0004 C   0  0  0  0  0  4           0  0  0
    2.4406   -4.9768    0.0011 C   0  0  0  0  0  4           0  0  0
    3.5812   -5.9837    0.0009 C   0  0  0  0  0  4           0  0  0
  1  8  1  0     0  0
  2  7  1  0     0  0
  2 25  1  0     0  0
  3 23  2  0     0  0
  4 24  1  0     0  0
  5  9  1  0     0  0
  5 10  1  0     0  0
  5 26  1  0     0  0
  6  8  1  0     0  0
  6  9  2  0     0  0
  7 23  1  0     0  0
  8 10  2  0     0  0
  9 27  1  0     0  0
 10 24  1  0     0  0
 11 12  1  0     0  0
 11 13  1  0     0  0
 11 15  2  0     0  0
 12 16  2  0     0  0
 12 17  1  0     0  0
 13 18  2  0     0  0
 13 23  1  0     0  0
 14 19  2  0     0  0
 14 20  1  0     0  0
 14 26  1  0     0  0
 15 21  1  0     0  0
 16 19  1  0     0  0
 17 20  2  0     0  0
 18 22  1  0     0  0
 21 22  2  0     0  0
 27 28  1  0     0  0
 28 29  1  0     0  0
 29 30  1  0     0  0
M  END
> <standard_type>
pIC50

> <# Confs.>
25

> <canonical_smiles>
ClC(N=C1CCCC)=C(CO)N1CC2=CC=C(C3=CC=CC=C3C(NOC)=O)C=C2

> <standard_relation>
=

> <Publication_ID>
nan

> <predicted_activity_value>
5.045757490560675

> <actual_activity_value>
5.3872161432802645

> <Compound>
19

> <standard_units>
nM

> hash
9076080683995789151

$$$$
19_
XXILIB    08252103443D 0   0.00000     0.00000

 30 32  0     1  0            999 V2000
    5.0277    1.4596   -0.0265 Cl  0  0  0  0  0  1           0  0  0
   -6.2849    1.1332    3.7441 O   0  0  0  0  0  2           0  0  0
   -4.4834   -0.7903    3.8673 O   0  0  0  0  0  2           0  0  0
    1.5405    2.8932    1.3688 O   0  0  0  0  0  2           0  0  0
    1.4530   -0.0000    0.0000 N   0  0  0  0  0  3           0  0  0
    3.5352   -0.7623   -0.0079 N   0  0  0  0  0  3           0  0  0
   -5.3190    1.1225    4.7722 N   0  0  0  0  0  3           0  0  0
    3.5486    0.6094   -0.0071 C   0  0  0  0  0  4           0  0  0
    2.2669   -1.1146    0.0000 C   0  0  0  0  0  4           0  0  0
    2.2623    1.1246    0.0085 C   0  0  0  0  0  4           0  0  0
   -2.0115   -0.0015    5.4340 C   0  0  0  0  0  4           0  0  0
   -1.5127   -0.0005    4.0537 C   0  0  0  0  0  4           0  0  0
   -3.3847   -0.0147    5.7705 C   0  0  0  0  0  4           0  0  0
   -0.5412   -0.0000    1.3970 C   0  0  0  0  0  4           0  0  0
   -1.0817   -0.0277    6.4937 C   0  0  0  0  0  4           0  0  0
   -1.2808    1.2047    3.3741 C   0  0  0  0  0  4           0  0  0
   -1.2500   -1.2051    3.3848 C   0  0  0  0  0  4           0  0  0
   -3.7936   -0.0593    7.1141 C   0  0  0  0  0  4           0  0  0
   -0.7987    1.2047    2.0618 C   0  0  0  0  0  4           0  0  0
   -0.7680   -1.2047    2.0728 C   0  0  0  0  0  4           0  0  0
   -1.4938   -0.0751    7.8274 C   0  0  0  0  0  4           0  0  0
   -2.8486   -0.0932    8.1365 C   0  0  0  0  0  4           0  0  0
   -4.4382    0.0802    4.7365 C   0  0  0  0  0  4           0  0  0
    1.7079    2.4956    0.0149 C   0  0  0  0  0  4           0  0  0
   -7.4247    0.4076    4.1891 C   0  0  0  0  0  4           0  0  0
    0.0000    0.0000    0.0000 C   0  0  0  0  0  4           0  0  0
    1.7822   -2.5218    0.0006 C   0  0  0  0  0  4           0  0  0
    2.5361   -3.3955   -0.9971 C   0  0  0  0  0  4           0  0  0
    2.4037   -2.8997   -2.4349 C   0  0  0  0  0  4           0  0  0
    0.9611   -2.8644   -2.9172 C   0  0  0  0  0  4           0  0  0
  1  8  1  0     0  0
  2  7  1  0     0  0
  2 25  1  0     0  0
  3 23  2  0     0  0
  4 24  1  0     0  0
  5  9  1  0     0  0
  5 10  1  0     0  0
  5 26  1  0     0  0
  6  8  1  0     0  0
  6  9  2  0     0  0
  7 23  1  0     0  0
  8 10  2  0     0  0
  9 27  1  0     0  0
 10 24  1  0     0  0
 11 12  1  0     0  0
 11 13  1  0     0  0
 11 15  2  0     0  0
 12 16  2  0     0  0
 12 17  1  0     0  0
 13 18  2  0     0  0
 13 23  1  0     0  0
 14 19  2  0     0  0
 14 20  1  0     0  0
 14 26  1  0     0  0
 15 21  1  0     0  0
 16 19  1  0     0  0
 17 20  2  0     0  0
 18 22  1  0     0  0
 21 22  2  0     0  0
 27 28  1  0     0  0
 28 29  1  0     0  0
 29 30  1  0     0  0
M  END
> <standard_type>
pIC50

> <# Confs.>
25

> <canonical_smiles>
ClC(N=C1CCCC)=C(CO)N1CC2=CC=C(C3=CC=CC=C3C(NOC)=O)C=C2

> <standard_relation>
=

> <Publication_ID>
nan

> <predicted_activity_value>
5.045757490560675

> <actual_activity_value>
5.3872161432802645

> <Compound>
19

> <standard_units>
nM

> hash
9076080683995789151

$$$$
19_
XXILIB    08252103443D 0   0.00000     0.00000

 30 32  0     1  0            999 V2000
    5.0277   -1.4596    0.0265 Cl  0  0  0  0  0  1           0  0  0
    2.3634    1.0498    6.3523 O   0  0  0  0  0  2           0  0  0
    0.1040    2.3755    6.0387 O   0  0  0  0  0  2           0  0  0
    2.4278   -3.2538   -0.9771 O   0  0  0  0  0  2           0  0  0
    1.4530    0.0000    0.0000 N   0  0  0  0  0  3           0  0  0
    3.5352    0.7623    0.0079 N   0  0  0  0  0  3           0  0  0
    1.1231    0.4036    6.5373 N   0  0  0  0  0  3           0  0  0
    3.5486   -0.6094    0.0071 C   0  0  0  0  0  4           0  0  0
    2.2669    1.1146   -0.0000 C   0  0  0  0  0  4           0  0  0
    2.2623   -1.1246   -0.0085 C   0  0  0  0  0  4           0  0  0
   -2.0115   -0.0015    5.4340 C   0  0  0  0  0  4           0  0  0
   -1.5127   -0.0005    4.0537 C   0  0  0  0  0  4           0  0  0
   -1.3250    0.5974    6.5153 C   0  0  0  0  0  4           0  0  0
   -0.5412    0.0000    1.3970 C   0  0  0  0  0  4           0  0  0
   -3.2603   -0.5971    5.7060 C   0  0  0  0  0  4           0  0  0
   -1.2808    1.2047    3.3741 C   0  0  0  0  0  4           0  0  0
   -1.2500   -1.2051    3.3848 C   0  0  0  0  0  4           0  0  0
   -1.8808    0.5981    7.8058 C   0  0  0  0  0  4           0  0  0
   -0.7987    1.2047    2.0618 C   0  0  0  0  0  4           0  0  0
   -0.7680   -1.2047    2.0728 C   0  0  0  0  0  4           0  0  0
   -3.8095   -0.5907    6.9902 C   0  0  0  0  0  4           0  0  0
   -3.1210    0.0085    8.0381 C   0  0  0  0  0  4           0  0  0
    0.0213    1.1871    6.3488 C   0  0  0  0  0  4           0  0  0
    1.7079   -2.4956   -0.0149 C   0  0  0  0  0  4           0  0  0
    3.0654    0.3870    5.3075 C   0  0  0  0  0  4           0  0  0
    0.0000    0.0000    0.0000 C   0  0  0  0  0  4           0  0  0
    1.7822    2.5218   -0.0006 C   0  0  0  0  0  4           0  0  0
    2.5369    3.3949   -0.9983 C   0  0  0  0  0  4           0  0  0
    2.0472    4.8408   -1.0068 C   0  0  0  0  0  4           0  0  0
    2.7987    5.7133   -2.0012 C   0  0  0  0  0  4           0  0  0
  1  8  1  0     0  0
  2  7  1  0     0  0
  2 25  1  0     0  0
  3 23  2  0     0  0
  4 24  1  0     0  0
  5  9  1  0     0  0
  5 10  1  0     0  0
  5 26  1  0     0  0
  6  8  1  0     0  0
  6  9  2  0     0  0
  7 23  1  0     0  0
  8 10  2  0     0  0
  9 27  1  0     0  0
 10 24  1  0     0  0
 11 12  1  0     0  0
 11 13  1  0     0  0
 11 15  2  0     0  0
 12 16  2  0     0  0
 12 17  1  0     0  0
 13 18  2  0     0  0
 13 23  1  0     0  0
 14 19  2  0     0  0
 14 20  1  0     0  0
 14 26  1  0     0  0
 15 21  1  0     0  0
 16 19  1  0     0  0
 17 20  2  0     0  0
 18 22  1  0     0  0
 21 22  2  0     0  0
 27 28  1  0     0  0
 28 29  1  0     0  0
 29 30  1  0     0  0
M  END
> <standard_type>
pIC50

> <# Confs.>
25

> <canonical_smiles>
ClC(N=C1CCCC)=C(CO)N1CC2=CC=C(C3=CC=CC=C3C(NOC)=O)C=C2

> <standard_relation>
=

> <Publication_ID>
nan

> <predicted_activity_value>
5.045757490560675

> <actual_activity_value>
5.3872161432802645

> <Compound>
19

> <standard_units>
nM

> hash
9076080683995789151

$$$$
19_
XXILIB    08252103443D 0   0.00000     0.00000

 30 32  0     1  0            999 V2000
    5.0277    1.4596   -0.0265 Cl  0  0  0  0  0  1           0  0  0
    2.3556   -1.1361    6.8645 O   0  0  0  0  0  2           0  0  0
    0.8905    0.7881    5.8104 O   0  0  0  0  0  2           0  0  0
    1.5405    2.8932    1.3688 O   0  0  0  0  0  2           0  0  0
    1.4530   -0.0000    0.0000 N   0  0  0  0  0  3           0  0  0
    3.5352   -0.7623   -0.0079 N   0  0  0  0  0  3           0  0  0
    0.9556   -1.1263    7.0377 N   0  0  0  0  0  3           0  0  0
    3.5486    0.6094   -0.0071 C   0  0  0  0  0  4           0  0  0
    2.2669   -1.1146    0.0000 C   0  0  0  0  0  4           0  0  0
    2.2623    1.1246    0.0085 C   0  0  0  0  0  4           0  0  0
   -2.0115   -0.0015    5.4340 C   0  0  0  0  0  4           0  0  0
   -1.5127   -0.0005    4.0537 C   0  0  0  0  0  4           0  0  0
   -1.1706    0.0105    6.5706 C   0  0  0  0  0  4           0  0  0
   -0.5412   -0.0000    1.3970 C   0  0  0  0  0  4           0  0  0
   -3.4040    0.0236    5.6546 C   0  0  0  0  0  4           0  0  0
   -1.2808    1.2047    3.3741 C   0  0  0  0  0  4           0  0  0
   -1.2500   -1.2051    3.3848 C   0  0  0  0  0  4           0  0  0
   -1.7150    0.0530    7.8653 C   0  0  0  0  0  4           0  0  0
   -0.7987    1.2047    2.0618 C   0  0  0  0  0  4           0  0  0
   -0.7680   -1.2047    2.0728 C   0  0  0  0  0  4           0  0  0
   -3.9396    0.0691    6.9437 C   0  0  0  0  0  4           0  0  0
   -3.0953    0.0861    8.0475 C   0  0  0  0  0  4           0  0  0
    0.3006   -0.0835    6.4487 C   0  0  0  0  0  4           0  0  0
    1.7079    2.4956    0.0149 C   0  0  0  0  0  4           0  0  0
    2.6582   -1.8669    5.6820 C   0  0  0  0  0  4           0  0  0
    0.0000   -0.0000    0.0000 C   0  0  0  0  0  4           0  0  0
    1.7822   -2.5218    0.0006 C   0  0  0  0  0  4           0  0  0
    2.5361   -3.3955   -0.9971 C   0  0  0  0  0  4           0  0  0
    2.0464   -4.8414   -1.0045 C   0  0  0  0  0  4           0  0  0
    2.7972   -5.7145   -1.9990 C   0  0  0  0  0  4           0  0  0
  1  8  1  0     0  0
  2  7  1  0     0  0
  2 25  1  0     0  0
  3 23  2  0     0  0
  4 24  1  0     0  0
  5  9  1  0     0  0
  5 10  1  0     0  0
  5 26  1  0     0  0
  6  8  1  0     0  0
  6  9  2  0     0  0
  7 23  1  0     0  0
  8 10  2  0     0  0
  9 27  1  0     0  0
 10 24  1  0     0  0
 11 12  1  0     0  0
 11 13  1  0     0  0
 11 15  2  0     0  0
 12 16  2  0     0  0
 12 17  1  0     0  0
 13 18  2  0     0  0
 13 23  1  0     0  0
 14 19  2  0     0  0
 14 20  1  0     0  0
 14 26  1  0     0  0
 15 21  1  0     0  0
 16 19  1  0     0  0
 17 20  2  0     0  0
 18 22  1  0     0  0
 21 22  2  0     0  0
 27 28  1  0     0  0
 28 29  1  0     0  0
 29 30  1  0     0  0
M  END
> <standard_type>
pIC50

> <# Confs.>
25

> <canonical_smiles>
ClC(N=C1CCCC)=C(CO)N1CC2=CC=C(C3=CC=CC=C3C(NOC)=O)C=C2

> <standard_relation>
=

> <Publication_ID>
nan

> <predicted_activity_value>
5.045757490560675

> <actual_activity_value>
5.3872161432802645

> <Compound>
19

> <standard_units>
nM

> hash
9076080683995789151

$$$$
19_
XXILIB    08252103443D 0   0.00000     0.00000

 30 32  0     1  0            999 V2000
    5.0277    1.4596   -0.0265 Cl  0  0  0  0  0  1           0  0  0
    2.3556   -1.1361    6.8645 O   0  0  0  0  0  2           0  0  0
    0.8905    0.7881    5.8104 O   0  0  0  0  0  2           0  0  0
    1.5405    2.8932    1.3688 O   0  0  0  0  0  2           0  0  0
    1.4530   -0.0000    0.0000 N   0  0  0  0  0  3           0  0  0
    3.5352   -0.7623   -0.0079 N   0  0  0  0  0  3           0  0  0
    0.9556   -1.1263    7.0377 N   0  0  0  0  0  3           0  0  0
    3.5486    0.6094   -0.0071 C   0  0  0  0  0  4           0  0  0
    2.2669   -1.1146    0.0000 C   0  0  0  0  0  4           0  0  0
    2.2623    1.1246    0.0085 C   0  0  0  0  0  4           0  0  0
   -2.0115   -0.0015    5.4340 C   0  0  0  0  0  4           0  0  0
   -1.5127   -0.0005    4.0537 C   0  0  0  0  0  4           0  0  0
   -1.1706    0.0105    6.5706 C   0  0  0  0  0  4           0  0  0
   -0.5412   -0.0000    1.3970 C   0  0  0  0  0  4           0  0  0
   -3.4040    0.0236    5.6546 C   0  0  0  0  0  4           0  0  0
   -1.2808    1.2047    3.3741 C   0  0  0  0  0  4           0  0  0
   -1.2500   -1.2051    3.3848 C   0  0  0  0  0  4           0  0  0
   -1.7150    0.0530    7.8653 C   0  0  0  0  0  4           0  0  0
   -0.7987    1.2047    2.0618 C   0  0  0  0  0  4           0  0  0
   -0.7680   -1.2047    2.0728 C   0  0  0  0  0  4           0  0  0
   -3.9396    0.0691    6.9437 C   0  0  0  0  0  4           0  0  0
   -3.0953    0.0861    8.0475 C   0  0  0  0  0  4           0  0  0
    0.3006   -0.0835    6.4487 C   0  0  0  0  0  4           0  0  0
    1.7079    2.4956    0.0149 C   0  0  0  0  0  4           0  0  0
    2.6582   -1.8669    5.6820 C   0  0  0  0  0  4           0  0  0
    0.0000   -0.0000    0.0000 C   0  0  0  0  0  4           0  0  0
    1.7822   -2.5218    0.0006 C   0  0  0  0  0  4           0  0  0
    2.5361   -3.3955   -0.9971 C   0  0  0  0  0  4           0  0  0
    2.4037   -2.8997   -2.4349 C   0  0  0  0  0  4           0  0  0
    3.1550   -3.7699   -3.4315 C   0  0  0  0  0  4           0  0  0
  1  8  1  0     0  0
  2  7  1  0     0  0
  2 25  1  0     0  0
  3 23  2  0     0  0
  4 24  1  0     0  0
  5  9  1  0     0  0
  5 10  1  0     0  0
  5 26  1  0     0  0
  6  8  1  0     0  0
  6  9  2  0     0  0
  7 23  1  0     0  0
  8 10  2  0     0  0
  9 27  1  0     0  0
 10 24  1  0     0  0
 11 12  1  0     0  0
 11 13  1  0     0  0
 11 15  2  0     0  0
 12 16  2  0     0  0
 12 17  1  0     0  0
 13 18  2  0     0  0
 13 23  1  0     0  0
 14 19  2  0     0  0
 14 20  1  0     0  0
 14 26  1  0     0  0
 15 21  1  0     0  0
 16 19  1  0     0  0
 17 20  2  0     0  0
 18 22  1  0     0  0
 21 22  2  0     0  0
 27 28  1  0     0  0
 28 29  1  0     0  0
 29 30  1  0     0  0
M  END
> <standard_type>
pIC50

> <# Confs.>
25

> <canonical_smiles>
ClC(N=C1CCCC)=C(CO)N1CC2=CC=C(C3=CC=CC=C3C(NOC)=O)C=C2

> <standard_relation>
=

> <Publication_ID>
nan

> <predicted_activity_value>
5.045757490560675

> <actual_activity_value>
5.3872161432802645

> <Compound>
19

> <standard_units>
nM

> hash
9076080683995789151

$$$$
19_
XXILIB    08252103443D 0   0.00000     0.00000

 30 32  0     1  0            999 V2000
    5.0277    1.4596   -0.0265 Cl  0  0  0  0  0  1           0  0  0
    2.4689    0.7497    6.7775 O   0  0  0  0  0  2           0  0  0
    0.7794   -1.0827    5.9124 O   0  0  0  0  0  2           0  0  0
    1.5405    2.8932    1.3688 O   0  0  0  0  0  2           0  0  0
    1.4530   -0.0000    0.0000 N   0  0  0  0  0  3           0  0  0
    3.5352   -0.7623   -0.0079 N   0  0  0  0  0  3           0  0  0
    1.0783    0.9282    6.9335 N   0  0  0  0  0  3           0  0  0
    3.5486    0.6094   -0.0071 C   0  0  0  0  0  4           0  0  0
    2.2669   -1.1146    0.0000 C   0  0  0  0  0  4           0  0  0
    2.2623    1.1246    0.0085 C   0  0  0  0  0  4           0  0  0
   -2.0115   -0.0015    5.4340 C   0  0  0  0  0  4           0  0  0
   -1.5127   -0.0005    4.0537 C   0  0  0  0  0  4           0  0  0
   -1.1706    0.0105    6.5706 C   0  0  0  0  0  4           0  0  0
   -0.5412   -0.0000    1.3970 C   0  0  0  0  0  4           0  0  0
   -3.4040    0.0236    5.6546 C   0  0  0  0  0  4           0  0  0
   -1.2808    1.2047    3.3741 C   0  0  0  0  0  4           0  0  0
   -1.2500   -1.2051    3.3848 C   0  0  0  0  0  4           0  0  0
   -1.7150    0.0530    7.8653 C   0  0  0  0  0  4           0  0  0
   -0.7987    1.2047    2.0618 C   0  0  0  0  0  4           0  0  0
   -0.7680   -1.2047    2.0728 C   0  0  0  0  0  4           0  0  0
   -3.9396    0.0691    6.9437 C   0  0  0  0  0  4           0  0  0
   -3.0953    0.0861    8.0475 C   0  0  0  0  0  4           0  0  0
    0.3006   -0.0835    6.4487 C   0  0  0  0  0  4           0  0  0
    1.7079    2.4956    0.0149 C   0  0  0  0  0  4           0  0  0
    2.8578    1.3096    5.5289 C   0  0  0  0  0  4           0  0  0
    0.0000   -0.0000    0.0000 C   0  0  0  0  0  4           0  0  0
    1.7822   -2.5218    0.0006 C   0  0  0  0  0  4           0  0  0
    2.5369   -3.3949    0.9983 C   0  0  0  0  0  4           0  0  0
    2.0472   -4.8408    1.0068 C   0  0  0  0  0  4           0  0  0
    2.7987   -5.7133    2.0012 C   0  0  0  0  0  4           0  0  0
  1  8  1  0     0  0
  2  7  1  0     0  0
  2 25  1  0     0  0
  3 23  2  0     0  0
  4 24  1  0     0  0
  5  9  1  0     0  0
  5 10  1  0     0  0
  5 26  1  0     0  0
  6  8  1  0     0  0
  6  9  2  0     0  0
  7 23  1  0     0  0
  8 10  2  0     0  0
  9 27  1  0     0  0
 10 24  1  0     0  0
 11 12  1  0     0  0
 11 13  1  0     0  0
 11 15  2  0     0  0
 12 16  2  0     0  0
 12 17  1  0     0  0
 13 18  2  0     0  0
 13 23  1  0     0  0
 14 19  2  0     0  0
 14 20  1  0     0  0
 14 26  1  0     0  0
 15 21  1  0     0  0
 16 19  1  0     0  0
 17 20  2  0     0  0
 18 22  1  0     0  0
 21 22  2  0     0  0
 27 28  1  0     0  0
 28 29  1  0     0  0
 29 30  1  0     0  0
M  END
> <standard_type>
pIC50

> <# Confs.>
25

> <canonical_smiles>
ClC(N=C1CCCC)=C(CO)N1CC2=CC=C(C3=CC=CC=C3C(NOC)=O)C=C2

> <standard_relation>
=

> <Publication_ID>
nan

> <predicted_activity_value>
5.045757490560675

> <actual_activity_value>
5.3872161432802645

> <Compound>
19

> <standard_units>
nM

> hash
9076080683995789151

$$$$
19_
XXILIB    08252103443D 0   0.00000     0.00000

 30 32  0     1  0            999 V2000
    5.0277   -1.4596    0.0265 Cl  0  0  0  0  0  1           0  0  0
   -2.4741   -4.7614    4.8890 O   0  0  0  0  0  2           0  0  0
   -3.5859   -2.4647    4.2185 O   0  0  0  0  0  2           0  0  0
    1.5405   -2.8932   -1.3688 O   0  0  0  0  0  2           0  0  0
    1.4530    0.0000    0.0000 N   0  0  0  0  0  3           0  0  0
    3.5352    0.7623    0.0079 N   0  0  0  0  0  3           0  0  0
   -2.2530   -3.6055    5.6669 N   0  0  0  0  0  3           0  0  0
    3.5486   -0.6094    0.0071 C   0  0  0  0  0  4           0  0  0
    2.2669    1.1146    0.0000 C   0  0  0  0  0  4           0  0  0
    2.2623   -1.1246   -0.0085 C   0  0  0  0  0  4           0  0  0
   -2.1512   -0.0605    5.3799 C   0  0  0  0  0  4           0  0  0
   -1.5984   -0.0376    4.0205 C   0  0  0  0  0  4           0  0  0
   -2.7106   -1.2129    5.9785 C   0  0  0  0  0  4           0  0  0
   -0.5412   -0.0000    1.3970 C   0  0  0  0  0  4           0  0  0
   -2.0954    1.1145    6.1573 C   0  0  0  0  0  4           0  0  0
   -0.5253   -0.8691    3.6667 C   0  0  0  0  0  4           0  0  0
   -2.1354    0.8118    3.0418 C   0  0  0  0  0  4           0  0  0
   -3.1829   -1.1765    7.3014 C   0  0  0  0  0  4           0  0  0
   -0.0043   -0.8519    2.3695 C   0  0  0  0  0  4           0  0  0
   -1.6142    0.8288    1.7450 C   0  0  0  0  0  4           0  0  0
   -2.5636    1.1441    7.4728 C   0  0  0  0  0  4           0  0  0
   -3.1046   -0.0012    8.0445 C   0  0  0  0  0  4           0  0  0
   -2.8781   -2.4750    5.2256 C   0  0  0  0  0  4           0  0  0
    1.7079   -2.4956   -0.0149 C   0  0  0  0  0  4           0  0  0
   -1.2194   -5.2257    4.4053 C   0  0  0  0  0  4           0  0  0
    0.0000    0.0000   -0.0000 C   0  0  0  0  0  4           0  0  0
    1.7822    2.5218   -0.0006 C   0  0  0  0  0  4           0  0  0
    1.5926    3.0707    1.4101 C   0  0  0  0  0  4           0  0  0
    1.0954    4.5140    1.4207 C   0  0  0  0  0  4           0  0  0
    0.9058    5.0633    2.8269 C   0  0  0  0  0  4           0  0  0
  1  8  1  0     0  0
  2  7  1  0     0  0
  2 25  1  0     0  0
  3 23  2  0     0  0
  4 24  1  0     0  0
  5  9  1  0     0  0
  5 10  1  0     0  0
  5 26  1  0     0  0
  6  8  1  0     0  0
  6  9  2  0     0  0
  7 23  1  0     0  0
  8 10  2  0     0  0
  9 27  1  0     0  0
 10 24  1  0     0  0
 11 12  1  0     0  0
 11 13  1  0     0  0
 11 15  2  0     0  0
 12 16  2  0     0  0
 12 17  1  0     0  0
 13 18  2  0     0  0
 13 23  1  0     0  0
 14 19  2  0     0  0
 14 20  1  0     0  0
 14 26  1  0     0  0
 15 21  1  0     0  0
 16 19  1  0     0  0
 17 20  2  0     0  0
 18 22  1  0     0  0
 21 22  2  0     0  0
 27 28  1  0     0  0
 28 29  1  0     0  0
 29 30  1  0     0  0
M  END
> <standard_type>
pIC50

> <# Confs.>
25

> <canonical_smiles>
ClC(N=C1CCCC)=C(CO)N1CC2=CC=C(C3=CC=CC=C3C(NOC)=O)C=C2

> <standard_relation>
=

> <Publication_ID>
nan

> <predicted_activity_value>
5.045757490560675

> <actual_activity_value>
5.3872161432802645

> <Compound>
19

> <standard_units>
nM

> hash
9076080683995789151

$$$$
19_
XXILIB    08252103443D 0   0.00000     0.00000

 30 32  0     1  0            999 V2000
    5.0277   -1.4596    0.0265 Cl  0  0  0  0  0  1           0  0  0
    2.3634    1.0498    6.3523 O   0  0  0  0  0  2           0  0  0
    0.1040    2.3755    6.0387 O   0  0  0  0  0  2           0  0  0
    1.5405   -2.8932   -1.3688 O   0  0  0  0  0  2           0  0  0
    1.4530    0.0000    0.0000 N   0  0  0  0  0  3           0  0  0
    3.5352    0.7623    0.0079 N   0  0  0  0  0  3           0  0  0
    1.1231    0.4036    6.5373 N   0  0  0  0  0  3           0  0  0
    3.5486   -0.6094    0.0071 C   0  0  0  0  0  4           0  0  0
    2.2669    1.1146   -0.0000 C   0  0  0  0  0  4           0  0  0
    2.2623   -1.1246   -0.0085 C   0  0  0  0  0  4           0  0  0
   -2.0115   -0.0015    5.4340 C   0  0  0  0  0  4           0  0  0
   -1.5127   -0.0005    4.0537 C   0  0  0  0  0  4           0  0  0
   -1.3250    0.5974    6.5153 C   0  0  0  0  0  4           0  0  0
   -0.5412    0.0000    1.3970 C   0  0  0  0  0  4           0  0  0
   -3.2603   -0.5971    5.7060 C   0  0  0  0  0  4           0  0  0
   -1.2808    1.2047    3.3741 C   0  0  0  0  0  4           0  0  0
   -1.2500   -1.2051    3.3848 C   0  0  0  0  0  4           0  0  0
   -1.8808    0.5981    7.8058 C   0  0  0  0  0  4           0  0  0
   -0.7987    1.2047    2.0618 C   0  0  0  0  0  4           0  0  0
   -0.7680   -1.2047    2.0728 C   0  0  0  0  0  4           0  0  0
   -3.8095   -0.5907    6.9902 C   0  0  0  0  0  4           0  0  0
   -3.1210    0.0085    8.0381 C   0  0  0  0  0  4           0  0  0
    0.0213    1.1871    6.3488 C   0  0  0  0  0  4           0  0  0
    1.7079   -2.4956   -0.0149 C   0  0  0  0  0  4           0  0  0
    3.0654    0.3870    5.3075 C   0  0  0  0  0  4           0  0  0
    0.0000    0.0000    0.0000 C   0  0  0  0  0  4           0  0  0
    1.7822    2.5218   -0.0006 C   0  0  0  0  0  4           0  0  0
    2.5369    3.3949   -0.9983 C   0  0  0  0  0  4           0  0  0
    2.4056    2.8983   -2.4358 C   0  0  0  0  0  4           0  0  0
    3.1577    3.7679   -3.4323 C   0  0  0  0  0  4           0  0  0
  1  8  1  0     0  0
  2  7  1  0     0  0
  2 25  1  0     0  0
  3 23  2  0     0  0
  4 24  1  0     0  0
  5  9  1  0     0  0
  5 10  1  0     0  0
  5 26  1  0     0  0
  6  8  1  0     0  0
  6  9  2  0     0  0
  7 23  1  0     0  0
  8 10  2  0     0  0
  9 27  1  0     0  0
 10 24  1  0     0  0
 11 12  1  0     0  0
 11 13  1  0     0  0
 11 15  2  0     0  0
 12 16  2  0     0  0
 12 17  1  0     0  0
 13 18  2  0     0  0
 13 23  1  0     0  0
 14 19  2  0     0  0
 14 20  1  0     0  0
 14 26  1  0     0  0
 15 21  1  0     0  0
 16 19  1  0     0  0
 17 20  2  0     0  0
 18 22  1  0     0  0
 21 22  2  0     0  0
 27 28  1  0     0  0
 28 29  1  0     0  0
 29 30  1  0     0  0
M  END
> <standard_type>
pIC50

> <# Confs.>
25

> <canonical_smiles>
ClC(N=C1CCCC)=C(CO)N1CC2=CC=C(C3=CC=CC=C3C(NOC)=O)C=C2

> <standard_relation>
=

> <Publication_ID>
nan

> <predicted_activity_value>
5.045757490560675

> <actual_activity_value>
5.3872161432802645

> <Compound>
19

> <standard_units>
nM

> hash
9076080683995789151

$$$$
19_
XXILIB    08252103443D 0   0.00000     0.00000

 30 32  0     1  0            999 V2000
    5.0277   -1.4596    0.0265 Cl  0  0  0  0  0  1           0  0  0
    2.4689    0.7497    6.7775 O   0  0  0  0  0  2           0  0  0
    0.7794   -1.0827    5.9124 O   0  0  0  0  0  2           0  0  0
    2.4278   -3.2538   -0.9771 O   0  0  0  0  0  2           0  0  0
    1.4530    0.0000    0.0000 N   0  0  0  0  0  3           0  0  0
    3.5352    0.7623    0.0079 N   0  0  0  0  0  3           0  0  0
    1.0783    0.9282    6.9335 N   0  0  0  0  0  3           0  0  0
    3.5486   -0.6094    0.0071 C   0  0  0  0  0  4           0  0  0
    2.2669    1.1146    0.0000 C   0  0  0  0  0  4           0  0  0
    2.2623   -1.1246   -0.0085 C   0  0  0  0  0  4           0  0  0
   -2.0115   -0.0015    5.4340 C   0  0  0  0  0  4           0  0  0
   -1.5127   -0.0005    4.0537 C   0  0  0  0  0  4           0  0  0
   -1.1706    0.0105    6.5706 C   0  0  0  0  0  4           0  0  0
   -0.5412   -0.0000    1.3970 C   0  0  0  0  0  4           0  0  0
   -3.4040    0.0236    5.6546 C   0  0  0  0  0  4           0  0  0
   -1.2808    1.2047    3.3741 C   0  0  0  0  0  4           0  0  0
   -1.2500   -1.2051    3.3848 C   0  0  0  0  0  4           0  0  0
   -1.7150    0.0530    7.8653 C   0  0  0  0  0  4           0  0  0
   -0.7987    1.2047    2.0618 C   0  0  0  0  0  4           0  0  0
   -0.7680   -1.2047    2.0728 C   0  0  0  0  0  4           0  0  0
   -3.9396    0.0691    6.9437 C   0  0  0  0  0  4           0  0  0
   -3.0953    0.0861    8.0475 C   0  0  0  0  0  4           0  0  0
    0.3006   -0.0835    6.4487 C   0  0  0  0  0  4           0  0  0
    1.7079   -2.4956   -0.0149 C   0  0  0  0  0  4           0  0  0
    2.8578    1.3096    5.5289 C   0  0  0  0  0  4           0  0  0
    0.0000   -0.0000    0.0000 C   0  0  0  0  0  4           0  0  0
    1.7822    2.5218   -0.0006 C   0  0  0  0  0  4           0  0  0
    2.5361    3.3955    0.9971 C   0  0  0  0  0  4           0  0  0
    2.0464    4.8414    1.0045 C   0  0  0  0  0  4           0  0  0
    2.7972    5.7145    1.9990 C   0  0  0  0  0  4           0  0  0
  1  8  1  0     0  0
  2  7  1  0     0  0
  2 25  1  0     0  0
  3 23  2  0     0  0
  4 24  1  0     0  0
  5  9  1  0     0  0
  5 10  1  0     0  0
  5 26  1  0     0  0
  6  8  1  0     0  0
  6  9  2  0     0  0
  7 23  1  0     0  0
  8 10  2  0     0  0
  9 27  1  0     0  0
 10 24  1  0     0  0
 11 12  1  0     0  0
 11 13  1  0     0  0
 11 15  2  0     0  0
 12 16  2  0     0  0
 12 17  1  0     0  0
 13 18  2  0     0  0
 13 23  1  0     0  0
 14 19  2  0     0  0
 14 20  1  0     0  0
 14 26  1  0     0  0
 15 21  1  0     0  0
 16 19  1  0     0  0
 17 20  2  0     0  0
 18 22  1  0     0  0
 21 22  2  0     0  0
 27 28  1  0     0  0
 28 29  1  0     0  0
 29 30  1  0     0  0
M  END
> <standard_type>
pIC50

> <# Confs.>
25

> <canonical_smiles>
ClC(N=C1CCCC)=C(CO)N1CC2=CC=C(C3=CC=CC=C3C(NOC)=O)C=C2

> <standard_relation>
=

> <Publication_ID>
nan

> <predicted_activity_value>
5.045757490560675

> <actual_activity_value>
5.3872161432802645

> <Compound>
19

> <standard_units>
nM

> hash
9076080683995789151

$$$$
4_
XXILIB    08252103443D 0   0.00000     0.00000

 28 30  0     1  0            999 V2000
    5.0139   -1.4723   -0.0265 Cl  0  0  0  0  0  1           0  0  0
   -3.9799   -2.5398    4.6585 O   0  0  0  0  0  2           0  0  0
   -4.9944   -0.5829    4.1261 O   0  0  0  0  0  2           0  0  0
    1.6651   -2.9358    1.3300 O   0  0  0  0  0  2           0  0  0
    1.4520   -0.0000   -0.0000 N   0  0  0  0  0  3           0  0  0
    3.5349    0.7744   -0.0098 N   0  0  0  0  0  3           0  0  0
    3.5520   -0.5954   -0.0182 C   0  0  0  0  0  4           0  0  0
    2.2630    1.1187    0.0000 C   0  0  0  0  0  4           0  0  0
    2.2699   -1.1128   -0.0158 C   0  0  0  0  0  4           0  0  0
   -2.0541    0.0021    5.4181 C   0  0  0  0  0  4           0  0  0
   -1.5352    0.0010    4.0443 C   0  0  0  0  0  4           0  0  0
   -3.2891   -0.5753    5.7878 C   0  0  0  0  0  4           0  0  0
   -0.5420    0.0000    1.3967 C   0  0  0  0  0  4           0  0  0
   -1.3075    0.6330    6.4341 C   0  0  0  0  0  4           0  0  0
   -1.2932   -1.2047    3.3692 C   0  0  0  0  0  4           0  0  0
   -1.2687    1.2058    3.3772 C   0  0  0  0  0  4           0  0  0
   -3.7509   -0.5143    7.1123 C   0  0  0  0  0  4           0  0  0
   -0.8000   -1.2052    2.0614 C   0  0  0  0  0  4           0  0  0
   -0.7753    1.2056    2.0695 C   0  0  0  0  0  4           0  0  0
   -1.7695    0.6946    7.7514 C   0  0  0  0  0  4           0  0  0
   -2.9918    0.1245    8.0888 C   0  0  0  0  0  4           0  0  0
   -4.1057   -1.3341    4.8180 C   0  0  0  0  0  4           0  0  0
    1.7929   -2.5122   -0.0206 C   0  0  0  0  0  4           0  0  0
   -0.0000    0.0000    0.0000 C   0  0  0  0  0  4           0  0  0
    1.7662    2.5212    0.0173 C   0  0  0  0  0  4           0  0  0
    2.0055    4.8334   -0.9719 C   0  0  0  0  0  4           0  0  0
    1.4780    5.4480   -2.0369 C   0  0  0  0  0  4           0  0  0
    2.4992    3.4162   -0.9815 C   0  0  0  0  0  4           0  0  0
  1  7  1  0     0  0
  2 22  2  0     0  0
  3 22  1  0     0  0
  4 23  1  0     0  0
  5  8  1  0     0  0
  5  9  1  0     0  0
  5 24  1  0     0  0
  6  7  1  0     0  0
  6  8  2  0     0  0
  7  9  2  0     0  0
  8 25  1  0     0  0
  9 23  1  0     0  0
 10 11  1  0     0  0
 10 12  1  0     0  0
 10 14  2  0     0  0
 11 15  2  0     0  0
 11 16  1  0     0  0
 12 17  2  0     0  0
 12 22  1  0     0  0
 13 18  2  0     0  0
 13 19  1  0     0  0
 13 24  1  0     0  0
 14 20  1  0     0  0
 15 18  1  0     0  0
 16 19  2  0     0  0
 17 21  1  0     0  0
 20 21  2  0     0  0
 25 28  1  0     0  0
 26 27  2  0     0  0
 26 28  1  0     0  0
M  END
> <standard_type>
pIC50

> <# Confs.>
25

> <canonical_smiles>
OCC1=C(Cl)N=C(CCC=C)N1CC2=CC=C(C3=CC=CC=C3C(O)=O)C=C2

> <standard_relation>
=

> <Publication_ID>
nan

> <predicted_activity_value>
6.958607314841775

> <actual_activity_value>
7.096910013008056

> <Compound>
4

> <standard_units>
nM

> hash
5278952710938231999

$$$$
4_
XXILIB    08252103443D 0   0.00000     0.00000

 28 30  0     1  0            999 V2000
    5.0139   -1.4723   -0.0265 Cl  0  0  0  0  0  1           0  0  0
   -4.9320    0.8934    4.1257 O   0  0  0  0  0  2           0  0  0
   -4.8430   -1.3565    4.3937 O   0  0  0  0  0  2           0  0  0
    1.6651   -2.9358    1.3300 O   0  0  0  0  0  2           0  0  0
    1.4520   -0.0000   -0.0000 N   0  0  0  0  0  3           0  0  0
    3.5349    0.7744   -0.0098 N   0  0  0  0  0  3           0  0  0
    3.5520   -0.5954   -0.0182 C   0  0  0  0  0  4           0  0  0
    2.2630    1.1187    0.0000 C   0  0  0  0  0  4           0  0  0
    2.2699   -1.1128   -0.0158 C   0  0  0  0  0  4           0  0  0
   -2.0541    0.0021    5.4181 C   0  0  0  0  0  4           0  0  0
   -1.5352    0.0010    4.0443 C   0  0  0  0  0  4           0  0  0
   -3.4309    0.0145    5.7337 C   0  0  0  0  0  4           0  0  0
   -0.5420    0.0000    1.3967 C   0  0  0  0  0  4           0  0  0
   -1.1454    0.0198    6.4959 C   0  0  0  0  0  4           0  0  0
   -1.2932   -1.2047    3.3692 C   0  0  0  0  0  4           0  0  0
   -1.2687    1.2058    3.3772 C   0  0  0  0  0  4           0  0  0
   -3.8692    0.0495    7.0671 C   0  0  0  0  0  4           0  0  0
   -0.8000   -1.2052    2.0614 C   0  0  0  0  0  4           0  0  0
   -0.7753    1.2056    2.0695 C   0  0  0  0  0  4           0  0  0
   -1.5833    0.0567    7.8223 C   0  0  0  0  0  4           0  0  0
   -2.9439    0.0752    8.1069 C   0  0  0  0  0  4           0  0  0
   -4.4633   -0.0894    4.6819 C   0  0  0  0  0  4           0  0  0
    1.7929   -2.5122   -0.0206 C   0  0  0  0  0  4           0  0  0
   -0.0000    0.0000    0.0000 C   0  0  0  0  0  4           0  0  0
    1.7662    2.5212    0.0173 C   0  0  0  0  0  4           0  0  0
    2.0055    4.8334   -0.9719 C   0  0  0  0  0  4           0  0  0
    1.4780    5.4480   -2.0369 C   0  0  0  0  0  4           0  0  0
    2.4992    3.4162   -0.9815 C   0  0  0  0  0  4           0  0  0
  1  7  1  0     0  0
  2 22  2  0     0  0
  3 22  1  0     0  0
  4 23  1  0     0  0
  5  8  1  0     0  0
  5  9  1  0     0  0
  5 24  1  0     0  0
  6  7  1  0     0  0
  6  8  2  0     0  0
  7  9  2  0     0  0
  8 25  1  0     0  0
  9 23  1  0     0  0
 10 11  1  0     0  0
 10 12  1  0     0  0
 10 14  2  0     0  0
 11 15  2  0     0  0
 11 16  1  0     0  0
 12 17  2  0     0  0
 12 22  1  0     0  0
 13 18  2  0     0  0
 13 19  1  0     0  0
 13 24  1  0     0  0
 14 20  1  0     0  0
 15 18  1  0     0  0
 16 19  2  0     0  0
 17 21  1  0     0  0
 20 21  2  0     0  0
 25 28  1  0     0  0
 26 27  2  0     0  0
 26 28  1  0     0  0
M  END
> <standard_type>
pIC50

> <# Confs.>
25

> <canonical_smiles>
OCC1=C(Cl)N=C(CCC=C)N1CC2=CC=C(C3=CC=CC=C3C(O)=O)C=C2

> <standard_relation>
=

> <Publication_ID>
nan

> <predicted_activity_value>
6.958607314841775

> <actual_activity_value>
7.096910013008056

> <Compound>
4

> <standard_units>
nM

> hash
5278952710938231999

$$$$
4_
XXILIB    08252103443D 0   0.00000     0.00000

 28 30  0     1  0            999 V2000
    5.0139    1.4723    0.0265 Cl  0  0  0  0  0  1           0  0  0
   -5.0983    0.0139    4.0109 O   0  0  0  0  0  2           0  0  0
   -4.4712   -2.1150    4.4765 O   0  0  0  0  0  2           0  0  0
    1.6651    2.9358   -1.3300 O   0  0  0  0  0  2           0  0  0
    1.4520    0.0000    0.0000 N   0  0  0  0  0  3           0  0  0
    3.5349   -0.7744    0.0098 N   0  0  0  0  0  3           0  0  0
    3.5520    0.5954    0.0182 C   0  0  0  0  0  4           0  0  0
    2.2630   -1.1187    0.0000 C   0  0  0  0  0  4           0  0  0
    2.2699    1.1128    0.0158 C   0  0  0  0  0  4           0  0  0
   -2.1248   -0.0336    5.3906 C   0  0  0  0  0  4           0  0  0
   -1.5855   -0.0233    4.0248 C   0  0  0  0  0  4           0  0  0
   -3.4710   -0.3321    5.6973 C   0  0  0  0  0  4           0  0  0
   -0.5420    0.0000    1.3967 C   0  0  0  0  0  4           0  0  0
   -1.2764    0.2968    6.4670 C   0  0  0  0  0  4           0  0  0
   -2.1086    0.8424    3.0527 C   0  0  0  0  0  4           0  0  0
   -0.5360   -0.8803    3.6616 C   0  0  0  0  0  4           0  0  0
   -3.9395   -0.2933    7.0203 C   0  0  0  0  0  4           0  0  0
   -1.5945    0.8522    1.7530 C   0  0  0  0  0  4           0  0  0
   -0.0218   -0.8708    2.3619 C   0  0  0  0  0  4           0  0  0
   -1.7447    0.3369    7.7829 C   0  0  0  0  0  4           0  0  0
   -3.0759    0.0456    8.0583 C   0  0  0  0  0  4           0  0  0
   -4.4191   -0.7738    4.6537 C   0  0  0  0  0  4           0  0  0
    1.7929    2.5122    0.0206 C   0  0  0  0  0  4           0  0  0
    0.0000    0.0000    0.0000 C   0  0  0  0  0  4           0  0  0
    1.7662   -2.5212   -0.0173 C   0  0  0  0  0  4           0  0  0
    2.0055   -4.8334    0.9719 C   0  0  0  0  0  4           0  0  0
    1.4780   -5.4480    2.0369 C   0  0  0  0  0  4           0  0  0
    2.4992   -3.4162    0.9815 C   0  0  0  0  0  4           0  0  0
  1  7  1  0     0  0
  2 22  2  0     0  0
  3 22  1  0     0  0
  4 23  1  0     0  0
  5  8  1  0     0  0
  5  9  1  0     0  0
  5 24  1  0     0  0
  6  7  1  0     0  0
  6  8  2  0     0  0
  7  9  2  0     0  0
  8 25  1  0     0  0
  9 23  1  0     0  0
 10 11  1  0     0  0
 10 12  1  0     0  0
 10 14  2  0     0  0
 11 15  2  0     0  0
 11 16  1  0     0  0
 12 17  2  0     0  0
 12 22  1  0     0  0
 13 18  2  0     0  0
 13 19  1  0     0  0
 13 24  1  0     0  0
 14 20  1  0     0  0
 15 18  1  0     0  0
 16 19  2  0     0  0
 17 21  1  0     0  0
 20 21  2  0     0  0
 25 28  1  0     0  0
 26 27  2  0     0  0
 26 28  1  0     0  0
M  END
> <standard_type>
pIC50

> <# Confs.>
25

> <canonical_smiles>
OCC1=C(Cl)N=C(CCC=C)N1CC2=CC=C(C3=CC=CC=C3C(O)=O)C=C2

> <standard_relation>
=

> <Publication_ID>
nan

> <predicted_activity_value>
6.958607314841775

> <actual_activity_value>
7.096910013008056

> <Compound>
4

> <standard_units>
nM

> hash
5278952710938231999

$$$$
4_
XXILIB    08252103443D 0   0.00000     0.00000

 28 30  0     1  0            999 V2000
    5.0139    1.4723    0.0265 Cl  0  0  0  0  0  1           0  0  0
   -2.4316    3.2277    5.2594 O   0  0  0  0  0  2           0  0  0
   -0.3444    2.6490    5.9307 O   0  0  0  0  0  2           0  0  0
    1.6651    2.9358   -1.3300 O   0  0  0  0  0  2           0  0  0
    1.4520    0.0000    0.0000 N   0  0  0  0  0  3           0  0  0
    3.5349   -0.7744    0.0098 N   0  0  0  0  0  3           0  0  0
    3.5520    0.5954    0.0182 C   0  0  0  0  0  4           0  0  0
    2.2630   -1.1187    0.0000 C   0  0  0  0  0  4           0  0  0
    2.2699    1.1128    0.0158 C   0  0  0  0  0  4           0  0  0
   -2.1248   -0.0336    5.3906 C   0  0  0  0  0  4           0  0  0
   -1.5855   -0.0233    4.0248 C   0  0  0  0  0  4           0  0  0
   -2.1210    1.0943    6.2411 C   0  0  0  0  0  4           0  0  0
   -0.5420    0.0000    1.3967 C   0  0  0  0  0  4           0  0  0
   -2.6550   -1.2317    5.9112 C   0  0  0  0  0  4           0  0  0
   -2.1086    0.8424    3.0527 C   0  0  0  0  0  4           0  0  0
   -0.5360   -0.8803    3.6616 C   0  0  0  0  0  4           0  0  0
   -2.6200    1.0168    7.5511 C   0  0  0  0  0  4           0  0  0
   -1.5945    0.8522    1.7530 C   0  0  0  0  0  4           0  0  0
   -0.0218   -0.8708    2.3619 C   0  0  0  0  0  4           0  0  0
   -3.1495   -1.3077    7.2159 C   0  0  0  0  0  4           0  0  0
   -3.1284   -0.1851    8.0358 C   0  0  0  0  0  4           0  0  0
   -1.6678    2.4172    5.7641 C   0  0  0  0  0  4           0  0  0
    1.7929    2.5122    0.0206 C   0  0  0  0  0  4           0  0  0
    0.0000    0.0000    0.0000 C   0  0  0  0  0  4           0  0  0
    1.7662   -2.5212   -0.0173 C   0  0  0  0  0  4           0  0  0
    2.0055   -4.8334    0.9719 C   0  0  0  0  0  4           0  0  0
    1.4780   -5.4480    2.0369 C   0  0  0  0  0  4           0  0  0
    2.4992   -3.4162    0.9815 C   0  0  0  0  0  4           0  0  0
  1  7  1  0     0  0
  2 22  2  0     0  0
  3 22  1  0     0  0
  4 23  1  0     0  0
  5  8  1  0     0  0
  5  9  1  0     0  0
  5 24  1  0     0  0
  6  7  1  0     0  0
  6  8  2  0     0  0
  7  9  2  0     0  0
  8 25  1  0     0  0
  9 23  1  0     0  0
 10 11  1  0     0  0
 10 12  1  0     0  0
 10 14  2  0     0  0
 11 15  2  0     0  0
 11 16  1  0     0  0
 12 17  2  0     0  0
 12 22  1  0     0  0
 13 18  2  0     0  0
 13 19  1  0     0  0
 13 24  1  0     0  0
 14 20  1  0     0  0
 15 18  1  0     0  0
 16 19  2  0     0  0
 17 21  1  0     0  0
 20 21  2  0     0  0
 25 28  1  0     0  0
 26 27  2  0     0  0
 26 28  1  0     0  0
M  END
> <standard_type>
pIC50

> <# Confs.>
25

> <canonical_smiles>
OCC1=C(Cl)N=C(CCC=C)N1CC2=CC=C(C3=CC=CC=C3C(O)=O)C=C2

> <standard_relation>
=

> <Publication_ID>
nan

> <predicted_activity_value>
6.958607314841775

> <actual_activity_value>
7.096910013008056

> <Compound>
4

> <standard_units>
nM

> hash
5278952710938231999

$$$$
4_
XXILIB    08252103443D 0   0.00000     0.00000

 28 30  0     1  0            999 V2000
    5.0139   -1.4723   -0.0265 Cl  0  0  0  0  0  1           0  0  0
   -3.9799   -2.5398    4.6585 O   0  0  0  0  0  2           0  0  0
   -4.9944   -0.5829    4.1261 O   0  0  0  0  0  2           0  0  0
    1.6651   -2.9358    1.3300 O   0  0  0  0  0  2           0  0  0
    1.4520   -0.0000   -0.0000 N   0  0  0  0  0  3           0  0  0
    3.5349    0.7744   -0.0098 N   0  0  0  0  0  3           0  0  0
    3.5520   -0.5954   -0.0182 C   0  0  0  0  0  4           0  0  0
    2.2630    1.1187    0.0000 C   0  0  0  0  0  4           0  0  0
    2.2699   -1.1128   -0.0158 C   0  0  0  0  0  4           0  0  0
   -2.0541    0.0021    5.4181 C   0  0  0  0  0  4           0  0  0
   -1.5352    0.0010    4.0443 C   0  0  0  0  0  4           0  0  0
   -3.2891   -0.5753    5.7878 C   0  0  0  0  0  4           0  0  0
   -0.5420    0.0000    1.3967 C   0  0  0  0  0  4           0  0  0
   -1.3075    0.6330    6.4341 C   0  0  0  0  0  4           0  0  0
   -1.2932   -1.2047    3.3692 C   0  0  0  0  0  4           0  0  0
   -1.2687    1.2058    3.3772 C   0  0  0  0  0  4           0  0  0
   -3.7509   -0.5143    7.1123 C   0  0  0  0  0  4           0  0  0
   -0.8000   -1.2052    2.0614 C   0  0  0  0  0  4           0  0  0
   -0.7753    1.2056    2.0695 C   0  0  0  0  0  4           0  0  0
   -1.7695    0.6946    7.7514 C   0  0  0  0  0  4           0  0  0
   -2.9918    0.1245    8.0888 C   0  0  0  0  0  4           0  0  0
   -4.1057   -1.3341    4.8180 C   0  0  0  0  0  4           0  0  0
    1.7929   -2.5122   -0.0206 C   0  0  0  0  0  4           0  0  0
   -0.0000    0.0000    0.0000 C   0  0  0  0  0  4           0  0  0
    1.7662    2.5212    0.0173 C   0  0  0  0  0  4           0  0  0
    2.3613    2.9476   -2.4005 C   0  0  0  0  0  4           0  0  0
    1.8121    3.6774   -3.3783 C   0  0  0  0  0  4           0  0  0
    2.4992    3.4162   -0.9815 C   0  0  0  0  0  4           0  0  0
  1  7  1  0     0  0
  2 22  2  0     0  0
  3 22  1  0     0  0
  4 23  1  0     0  0
  5  8  1  0     0  0
  5  9  1  0     0  0
  5 24  1  0     0  0
  6  7  1  0     0  0
  6  8  2  0     0  0
  7  9  2  0     0  0
  8 25  1  0     0  0
  9 23  1  0     0  0
 10 11  1  0     0  0
 10 12  1  0     0  0
 10 14  2  0     0  0
 11 15  2  0     0  0
 11 16  1  0     0  0
 12 17  2  0     0  0
 12 22  1  0     0  0
 13 18  2  0     0  0
 13 19  1  0     0  0
 13 24  1  0     0  0
 14 20  1  0     0  0
 15 18  1  0     0  0
 16 19  2  0     0  0
 17 21  1  0     0  0
 20 21  2  0     0  0
 25 28  1  0     0  0
 26 27  2  0     0  0
 26 28  1  0     0  0
M  END
> <standard_type>
pIC50

> <# Confs.>
25

> <canonical_smiles>
OCC1=C(Cl)N=C(CCC=C)N1CC2=CC=C(C3=CC=CC=C3C(O)=O)C=C2

> <standard_relation>
=

> <Publication_ID>
nan

> <predicted_activity_value>
6.958607314841775

> <actual_activity_value>
7.096910013008056

> <Compound>
4

> <standard_units>
nM

> hash
5278952710938231999

$$$$
4_
XXILIB    08252103443D 0   0.00000     0.00000

 28 30  0     1  0            999 V2000
    5.0139   -1.4723   -0.0265 Cl  0  0  0  0  0  1           0  0  0
   -4.9320    0.8934    4.1257 O   0  0  0  0  0  2           0  0  0
   -4.8430   -1.3565    4.3937 O   0  0  0  0  0  2           0  0  0
    1.6651   -2.9358    1.3300 O   0  0  0  0  0  2           0  0  0
    1.4520   -0.0000   -0.0000 N   0  0  0  0  0  3           0  0  0
    3.5349    0.7744   -0.0098 N   0  0  0  0  0  3           0  0  0
    3.5520   -0.5954   -0.0182 C   0  0  0  0  0  4           0  0  0
    2.2630    1.1187    0.0000 C   0  0  0  0  0  4           0  0  0
    2.2699   -1.1128   -0.0158 C   0  0  0  0  0  4           0  0  0
   -2.0541    0.0021    5.4181 C   0  0  0  0  0  4           0  0  0
   -1.5352    0.0010    4.0443 C   0  0  0  0  0  4           0  0  0
   -3.4309    0.0145    5.7337 C   0  0  0  0  0  4           0  0  0
   -0.5420    0.0000    1.3967 C   0  0  0  0  0  4           0  0  0
   -1.1454    0.0198    6.4959 C   0  0  0  0  0  4           0  0  0
   -1.2932   -1.2047    3.3692 C   0  0  0  0  0  4           0  0  0
   -1.2687    1.2058    3.3772 C   0  0  0  0  0  4           0  0  0
   -3.8692    0.0495    7.0671 C   0  0  0  0  0  4           0  0  0
   -0.8000   -1.2052    2.0614 C   0  0  0  0  0  4           0  0  0
   -0.7753    1.2056    2.0695 C   0  0  0  0  0  4           0  0  0
   -1.5833    0.0567    7.8223 C   0  0  0  0  0  4           0  0  0
   -2.9439    0.0752    8.1069 C   0  0  0  0  0  4           0  0  0
   -4.4633   -0.0894    4.6819 C   0  0  0  0  0  4           0  0  0
    1.7929   -2.5122   -0.0206 C   0  0  0  0  0  4           0  0  0
   -0.0000    0.0000    0.0000 C   0  0  0  0  0  4           0  0  0
    1.7662    2.5212    0.0173 C   0  0  0  0  0  4           0  0  0
    2.3613    2.9476   -2.4005 C   0  0  0  0  0  4           0  0  0
    1.8121    3.6774   -3.3783 C   0  0  0  0  0  4           0  0  0
    2.4992    3.4162   -0.9815 C   0  0  0  0  0  4           0  0  0
  1  7  1  0     0  0
  2 22  2  0     0  0
  3 22  1  0     0  0
  4 23  1  0     0  0
  5  8  1  0     0  0
  5  9  1  0     0  0
  5 24  1  0     0  0
  6  7  1  0     0  0
  6  8  2  0     0  0
  7  9  2  0     0  0
  8 25  1  0     0  0
  9 23  1  0     0  0
 10 11  1  0     0  0
 10 12  1  0     0  0
 10 14  2  0     0  0
 11 15  2  0     0  0
 11 16  1  0     0  0
 12 17  2  0     0  0
 12 22  1  0     0  0
 13 18  2  0     0  0
 13 19  1  0     0  0
 13 24  1  0     0  0
 14 20  1  0     0  0
 15 18  1  0     0  0
 16 19  2  0     0  0
 17 21  1  0     0  0
 20 21  2  0     0  0
 25 28  1  0     0  0
 26 27  2  0     0  0
 26 28  1  0     0  0
M  END
> <standard_type>
pIC50

> <# Confs.>
25

> <canonical_smiles>
OCC1=C(Cl)N=C(CCC=C)N1CC2=CC=C(C3=CC=CC=C3C(O)=O)C=C2

> <standard_relation>
=

> <Publication_ID>
nan

> <predicted_activity_value>
6.958607314841775

> <actual_activity_value>
7.096910013008056

> <Compound>
4

> <standard_units>
nM

> hash
5278952710938231999

$$$$
4_
XXILIB    08252103443D 0   0.00000     0.00000

 28 30  0     1  0            999 V2000
    5.0139    1.4723    0.0265 Cl  0  0  0  0  0  1           0  0  0
   -5.0983    0.0139    4.0109 O   0  0  0  0  0  2           0  0  0
   -4.4712   -2.1150    4.4765 O   0  0  0  0  0  2           0  0  0
    1.6651    2.9358   -1.3300 O   0  0  0  0  0  2           0  0  0
    1.4520    0.0000    0.0000 N   0  0  0  0  0  3           0  0  0
    3.5349   -0.7744    0.0098 N   0  0  0  0  0  3           0  0  0
    3.5520    0.5954    0.0182 C   0  0  0  0  0  4           0  0  0
    2.2630   -1.1187    0.0000 C   0  0  0  0  0  4           0  0  0
    2.2699    1.1128    0.0158 C   0  0  0  0  0  4           0  0  0
   -2.1248   -0.0336    5.3906 C   0  0  0  0  0  4           0  0  0
   -1.5855   -0.0233    4.0248 C   0  0  0  0  0  4           0  0  0
   -3.4710   -0.3321    5.6973 C   0  0  0  0  0  4           0  0  0
   -0.5420    0.0000    1.3967 C   0  0  0  0  0  4           0  0  0
   -1.2764    0.2968    6.4670 C   0  0  0  0  0  4           0  0  0
   -2.1086    0.8424    3.0527 C   0  0  0  0  0  4           0  0  0
   -0.5360   -0.8803    3.6616 C   0  0  0  0  0  4           0  0  0
   -3.9395   -0.2933    7.0203 C   0  0  0  0  0  4           0  0  0
   -1.5945    0.8522    1.7530 C   0  0  0  0  0  4           0  0  0
   -0.0218   -0.8708    2.3619 C   0  0  0  0  0  4           0  0  0
   -1.7447    0.3369    7.7829 C   0  0  0  0  0  4           0  0  0
   -3.0759    0.0456    8.0583 C   0  0  0  0  0  4           0  0  0
   -4.4191   -0.7738    4.6537 C   0  0  0  0  0  4           0  0  0
    1.7929    2.5122    0.0206 C   0  0  0  0  0  4           0  0  0
    0.0000    0.0000    0.0000 C   0  0  0  0  0  4           0  0  0
    1.7662   -2.5212   -0.0173 C   0  0  0  0  0  4           0  0  0
    2.0284   -4.8167   -1.0388 C   0  0  0  0  0  4           0  0  0
    1.5255   -5.4136   -2.1256 C   0  0  0  0  0  4           0  0  0
    2.5220   -3.3997   -1.0137 C   0  0  0  0  0  4           0  0  0
  1  7  1  0     0  0
  2 22  2  0     0  0
  3 22  1  0     0  0
  4 23  1  0     0  0
  5  8  1  0     0  0
  5  9  1  0     0  0
  5 24  1  0     0  0
  6  7  1  0     0  0
  6  8  2  0     0  0
  7  9  2  0     0  0
  8 25  1  0     0  0
  9 23  1  0     0  0
 10 11  1  0     0  0
 10 12  1  0     0  0
 10 14  2  0     0  0
 11 15  2  0     0  0
 11 16  1  0     0  0
 12 17  2  0     0  0
 12 22  1  0     0  0
 13 18  2  0     0  0
 13 19  1  0     0  0
 13 24  1  0     0  0
 14 20  1  0     0  0
 15 18  1  0     0  0
 16 19  2  0     0  0
 17 21  1  0     0  0
 20 21  2  0     0  0
 25 28  1  0     0  0
 26 27  2  0     0  0
 26 28  1  0     0  0
M  END
> <standard_type>
pIC50

> <# Confs.>
25

> <canonical_smiles>
OCC1=C(Cl)N=C(CCC=C)N1CC2=CC=C(C3=CC=CC=C3C(O)=O)C=C2

> <standard_relation>
=

> <Publication_ID>
nan

> <predicted_activity_value>
6.958607314841775

> <actual_activity_value>
7.096910013008056

> <Compound>
4

> <standard_units>
nM

> hash
5278952710938231999

$$$$
4_
XXILIB    08252103443D 0   0.00000     0.00000

 28 30  0     1  0            999 V2000
    5.0139    1.4723    0.0265 Cl  0  0  0  0  0  1           0  0  0
   -2.4316    3.2277    5.2594 O   0  0  0  0  0  2           0  0  0
   -0.3444    2.6490    5.9307 O   0  0  0  0  0  2           0  0  0
    1.6651    2.9358   -1.3300 O   0  0  0  0  0  2           0  0  0
    1.4520    0.0000    0.0000 N   0  0  0  0  0  3           0  0  0
    3.5349   -0.7744    0.0098 N   0  0  0  0  0  3           0  0  0
    3.5520    0.5954    0.0182 C   0  0  0  0  0  4           0  0  0
    2.2630   -1.1187    0.0000 C   0  0  0  0  0  4           0  0  0
    2.2699    1.1128    0.0158 C   0  0  0  0  0  4           0  0  0
   -2.1248   -0.0336    5.3906 C   0  0  0  0  0  4           0  0  0
   -1.5855   -0.0233    4.0248 C   0  0  0  0  0  4           0  0  0
   -2.1210    1.0943    6.2411 C   0  0  0  0  0  4           0  0  0
   -0.5420    0.0000    1.3967 C   0  0  0  0  0  4           0  0  0
   -2.6550   -1.2317    5.9112 C   0  0  0  0  0  4           0  0  0
   -2.1086    0.8424    3.0527 C   0  0  0  0  0  4           0  0  0
   -0.5360   -0.8803    3.6616 C   0  0  0  0  0  4           0  0  0
   -2.6200    1.0168    7.5511 C   0  0  0  0  0  4           0  0  0
   -1.5945    0.8522    1.7530 C   0  0  0  0  0  4           0  0  0
   -0.0218   -0.8708    2.3619 C   0  0  0  0  0  4           0  0  0
   -3.1495   -1.3077    7.2159 C   0  0  0  0  0  4           0  0  0
   -3.1284   -0.1851    8.0358 C   0  0  0  0  0  4           0  0  0
   -1.6678    2.4172    5.7641 C   0  0  0  0  0  4           0  0  0
    1.7929    2.5122    0.0206 C   0  0  0  0  0  4           0  0  0
    0.0000    0.0000    0.0000 C   0  0  0  0  0  4           0  0  0
    1.7662   -2.5212   -0.0173 C   0  0  0  0  0  4           0  0  0
    2.0284   -4.8167   -1.0388 C   0  0  0  0  0  4           0  0  0
    1.5255   -5.4136   -2.1256 C   0  0  0  0  0  4           0  0  0
    2.5220   -3.3997   -1.0137 C   0  0  0  0  0  4           0  0  0
  1  7  1  0     0  0
  2 22  2  0     0  0
  3 22  1  0     0  0
  4 23  1  0     0  0
  5  8  1  0     0  0
  5  9  1  0     0  0
  5 24  1  0     0  0
  6  7  1  0     0  0
  6  8  2  0     0  0
  7  9  2  0     0  0
  8 25  1  0     0  0
  9 23  1  0     0  0
 10 11  1  0     0  0
 10 12  1  0     0  0
 10 14  2  0     0  0
 11 15  2  0     0  0
 11 16  1  0     0  0
 12 17  2  0     0  0
 12 22  1  0     0  0
 13 18  2  0     0  0
 13 19  1  0     0  0
 13 24  1  0     0  0
 14 20  1  0     0  0
 15 18  1  0     0  0
 16 19  2  0     0  0
 17 21  1  0     0  0
 20 21  2  0     0  0
 25 28  1  0     0  0
 26 27  2  0     0  0
 26 28  1  0     0  0
M  END
> <standard_type>
pIC50

> <# Confs.>
25

> <canonical_smiles>
OCC1=C(Cl)N=C(CCC=C)N1CC2=CC=C(C3=CC=CC=C3C(O)=O)C=C2

> <standard_relation>
=

> <Publication_ID>
nan

> <predicted_activity_value>
6.958607314841775

> <actual_activity_value>
7.096910013008056

> <Compound>
4

> <standard_units>
nM

> hash
5278952710938231999

$$$$
4_
XXILIB    08252103443D 0   0.00000     0.00000

 28 30  0     1  0            999 V2000
    5.0139   -1.4723   -0.0265 Cl  0  0  0  0  0  1           0  0  0
    0.1472   -2.3445    6.0466 O   0  0  0  0  0  2           0  0  0
    0.9792   -0.3067    6.5917 O   0  0  0  0  0  2           0  0  0
    1.6651   -2.9358    1.3300 O   0  0  0  0  0  2           0  0  0
    1.4520   -0.0000   -0.0000 N   0  0  0  0  0  3           0  0  0
    3.5349    0.7744   -0.0098 N   0  0  0  0  0  3           0  0  0
    3.5520   -0.5954   -0.0182 C   0  0  0  0  0  4           0  0  0
    2.2630    1.1187    0.0000 C   0  0  0  0  0  4           0  0  0
    2.2699   -1.1128   -0.0158 C   0  0  0  0  0  4           0  0  0
   -2.0541    0.0021    5.4181 C   0  0  0  0  0  4           0  0  0
   -1.5352    0.0010    4.0443 C   0  0  0  0  0  4           0  0  0
   -1.3828   -0.5957    6.5077 C   0  0  0  0  0  4           0  0  0
   -0.5420    0.0000    1.3967 C   0  0  0  0  0  4           0  0  0
   -3.3019    0.6032    5.6810 C   0  0  0  0  0  4           0  0  0
   -1.2932   -1.2047    3.3692 C   0  0  0  0  0  4           0  0  0
   -1.2687    1.2058    3.3772 C   0  0  0  0  0  4           0  0  0
   -1.9435   -0.5935    7.7949 C   0  0  0  0  0  4           0  0  0
   -0.8000   -1.2052    2.0614 C   0  0  0  0  0  4           0  0  0
   -0.7753    1.2056    2.0695 C   0  0  0  0  0  4           0  0  0
   -3.8596    0.6028    6.9622 C   0  0  0  0  0  4           0  0  0
   -3.1822    0.0016    8.0170 C   0  0  0  0  0  4           0  0  0
   -0.0322   -1.1754    6.3563 C   0  0  0  0  0  4           0  0  0
    1.7929   -2.5122   -0.0206 C   0  0  0  0  0  4           0  0  0
   -0.0000    0.0000    0.0000 C   0  0  0  0  0  4           0  0  0
    1.7662    2.5212    0.0173 C   0  0  0  0  0  4           0  0  0
    2.0055    4.8334   -0.9719 C   0  0  0  0  0  4           0  0  0
    1.4780    5.4480   -2.0369 C   0  0  0  0  0  4           0  0  0
    2.4992    3.4162   -0.9815 C   0  0  0  0  0  4           0  0  0
  1  7  1  0     0  0
  2 22  2  0     0  0
  3 22  1  0     0  0
  4 23  1  0     0  0
  5  8  1  0     0  0
  5  9  1  0     0  0
  5 24  1  0     0  0
  6  7  1  0     0  0
  6  8  2  0     0  0
  7  9  2  0     0  0
  8 25  1  0     0  0
  9 23  1  0     0  0
 10 11  1  0     0  0
 10 12  1  0     0  0
 10 14  2  0     0  0
 11 15  2  0     0  0
 11 16  1  0     0  0
 12 17  2  0     0  0
 12 22  1  0     0  0
 13 18  2  0     0  0
 13 19  1  0     0  0
 13 24  1  0     0  0
 14 20  1  0     0  0
 15 18  1  0     0  0
 16 19  2  0     0  0
 17 21  1  0     0  0
 20 21  2  0     0  0
 25 28  1  0     0  0
 26 27  2  0     0  0
 26 28  1  0     0  0
M  END
> <standard_type>
pIC50

> <# Confs.>
25

> <canonical_smiles>
OCC1=C(Cl)N=C(CCC=C)N1CC2=CC=C(C3=CC=CC=C3C(O)=O)C=C2

> <standard_relation>
=

> <Publication_ID>
nan

> <predicted_activity_value>
6.958607314841775

> <actual_activity_value>
7.096910013008056

> <Compound>
4

> <standard_units>
nM

> hash
5278952710938231999

$$$$
4_
XXILIB    08252103443D 0   0.00000     0.00000

 28 30  0     1  0            999 V2000
    5.0139   -1.4723   -0.0265 Cl  0  0  0  0  0  1           0  0  0
   -4.9091   -1.1642    4.3064 O   0  0  0  0  0  2           0  0  0
   -4.8656    1.0991    4.1733 O   0  0  0  0  0  2           0  0  0
    1.6651   -2.9358    1.3300 O   0  0  0  0  0  2           0  0  0
    1.4520   -0.0000   -0.0000 N   0  0  0  0  0  3           0  0  0
    3.5349    0.7744   -0.0098 N   0  0  0  0  0  3           0  0  0
    3.5520   -0.5954   -0.0182 C   0  0  0  0  0  4           0  0  0
    2.2630    1.1187    0.0000 C   0  0  0  0  0  4           0  0  0
    2.2699   -1.1128   -0.0158 C   0  0  0  0  0  4           0  0  0
   -2.0541    0.0021    5.4181 C   0  0  0  0  0  4           0  0  0
   -1.5352    0.0010    4.0443 C   0  0  0  0  0  4           0  0  0
   -3.4309    0.0145    5.7337 C   0  0  0  0  0  4           0  0  0
   -0.5420    0.0000    1.3967 C   0  0  0  0  0  4           0  0  0
   -1.1454    0.0198    6.4959 C   0  0  0  0  0  4           0  0  0
   -1.2932   -1.2047    3.3692 C   0  0  0  0  0  4           0  0  0
   -1.2687    1.2058    3.3772 C   0  0  0  0  0  4           0  0  0
   -3.8692    0.0495    7.0671 C   0  0  0  0  0  4           0  0  0
   -0.8000   -1.2052    2.0614 C   0  0  0  0  0  4           0  0  0
   -0.7753    1.2056    2.0695 C   0  0  0  0  0  4           0  0  0
   -1.5833    0.0567    7.8223 C   0  0  0  0  0  4           0  0  0
   -2.9439    0.0752    8.1069 C   0  0  0  0  0  4           0  0  0
   -4.4633   -0.0894    4.6819 C   0  0  0  0  0  4           0  0  0
    1.7929   -2.5122   -0.0206 C   0  0  0  0  0  4           0  0  0
   -0.0000    0.0000    0.0000 C   0  0  0  0  0  4           0  0  0
    1.7662    2.5212    0.0173 C   0  0  0  0  0  4           0  0  0
    2.0055    4.8334   -0.9719 C   0  0  0  0  0  4           0  0  0
    2.7749    5.8907   -0.6884 C   0  0  0  0  0  4           0  0  0
    2.4992    3.4162   -0.9815 C   0  0  0  0  0  4           0  0  0
  1  7  1  0     0  0
  2 22  2  0     0  0
  3 22  1  0     0  0
  4 23  1  0     0  0
  5  8  1  0     0  0
  5  9  1  0     0  0
  5 24  1  0     0  0
  6  7  1  0     0  0
  6  8  2  0     0  0
  7  9  2  0     0  0
  8 25  1  0     0  0
  9 23  1  0     0  0
 10 11  1  0     0  0
 10 12  1  0     0  0
 10 14  2  0     0  0
 11 15  2  0     0  0
 11 16  1  0     0  0
 12 17  2  0     0  0
 12 22  1  0     0  0
 13 18  2  0     0  0
 13 19  1  0     0  0
 13 24  1  0     0  0
 14 20  1  0     0  0
 15 18  1  0     0  0
 16 19  2  0     0  0
 17 21  1  0     0  0
 20 21  2  0     0  0
 25 28  1  0     0  0
 26 27  2  0     0  0
 26 28  1  0     0  0
M  END
> <standard_type>
pIC50

> <# Confs.>
25

> <canonical_smiles>
OCC1=C(Cl)N=C(CCC=C)N1CC2=CC=C(C3=CC=CC=C3C(O)=O)C=C2

> <standard_relation>
=

> <Publication_ID>
nan

> <predicted_activity_value>
6.958607314841775

> <actual_activity_value>
7.096910013008056

> <Compound>
4

> <standard_units>
nM

> hash
5278952710938231999

$$$$
4_
XXILIB    08252103443D 0   0.00000     0.00000

 28 30  0     1  0            999 V2000
    5.0139   -1.4723   -0.0265 Cl  0  0  0  0  0  1           0  0  0
   -3.9799   -2.5398    4.6585 O   0  0  0  0  0  2           0  0  0
   -4.9944   -0.5829    4.1261 O   0  0  0  0  0  2           0  0  0
    1.6651   -2.9358    1.3300 O   0  0  0  0  0  2           0  0  0
    1.4520   -0.0000   -0.0000 N   0  0  0  0  0  3           0  0  0
    3.5349    0.7744   -0.0098 N   0  0  0  0  0  3           0  0  0
    3.5520   -0.5954   -0.0182 C   0  0  0  0  0  4           0  0  0
    2.2630    1.1187    0.0000 C   0  0  0  0  0  4           0  0  0
    2.2699   -1.1128   -0.0158 C   0  0  0  0  0  4           0  0  0
   -2.0541    0.0021    5.4181 C   0  0  0  0  0  4           0  0  0
   -1.5352    0.0010    4.0443 C   0  0  0  0  0  4           0  0  0
   -3.2891   -0.5753    5.7878 C   0  0  0  0  0  4           0  0  0
   -0.5420    0.0000    1.3967 C   0  0  0  0  0  4           0  0  0
   -1.3075    0.6330    6.4341 C   0  0  0  0  0  4           0  0  0
   -1.2932   -1.2047    3.3692 C   0  0  0  0  0  4           0  0  0
   -1.2687    1.2058    3.3772 C   0  0  0  0  0  4           0  0  0
   -3.7509   -0.5143    7.1123 C   0  0  0  0  0  4           0  0  0
   -0.8000   -1.2052    2.0614 C   0  0  0  0  0  4           0  0  0
   -0.7753    1.2056    2.0695 C   0  0  0  0  0  4           0  0  0
   -1.7695    0.6946    7.7514 C   0  0  0  0  0  4           0  0  0
   -2.9918    0.1245    8.0888 C   0  0  0  0  0  4           0  0  0
   -4.1057   -1.3341    4.8180 C   0  0  0  0  0  4           0  0  0
    1.7929   -2.5122   -0.0206 C   0  0  0  0  0  4           0  0  0
   -0.0000    0.0000    0.0000 C   0  0  0  0  0  4           0  0  0
    1.7662    2.5212    0.0173 C   0  0  0  0  0  4           0  0  0
    2.4095    4.9641    0.0301 C   0  0  0  0  0  4           0  0  0
    2.7007    5.8437    0.9955 C   0  0  0  0  0  4           0  0  0
    2.9001    3.5459    0.0128 C   0  0  0  0  0  4           0  0  0
  1  7  1  0     0  0
  2 22  2  0     0  0
  3 22  1  0     0  0
  4 23  1  0     0  0
  5  8  1  0     0  0
  5  9  1  0     0  0
  5 24  1  0     0  0
  6  7  1  0     0  0
  6  8  2  0     0  0
  7  9  2  0     0  0
  8 25  1  0     0  0
  9 23  1  0     0  0
 10 11  1  0     0  0
 10 12  1  0     0  0
 10 14  2  0     0  0
 11 15  2  0     0  0
 11 16  1  0     0  0
 12 17  2  0     0  0
 12 22  1  0     0  0
 13 18  2  0     0  0
 13 19  1  0     0  0
 13 24  1  0     0  0
 14 20  1  0     0  0
 15 18  1  0     0  0
 16 19  2  0     0  0
 17 21  1  0     0  0
 20 21  2  0     0  0
 25 28  1  0     0  0
 26 27  2  0     0  0
 26 28  1  0     0  0
M  END
> <standard_type>
pIC50

> <# Confs.>
25

> <canonical_smiles>
OCC1=C(Cl)N=C(CCC=C)N1CC2=CC=C(C3=CC=CC=C3C(O)=O)C=C2

> <standard_relation>
=

> <Publication_ID>
nan

> <predicted_activity_value>
6.958607314841775

> <actual_activity_value>
7.096910013008056

> <Compound>
4

> <standard_units>
nM

> hash
5278952710938231999

$$$$
4_
XXILIB    08252103443D 0   0.00000     0.00000

 28 30  0     1  0            999 V2000
    5.0139   -1.4723   -0.0265 Cl  0  0  0  0  0  1           0  0  0
   -4.9320    0.8934    4.1257 O   0  0  0  0  0  2           0  0  0
   -4.8430   -1.3565    4.3937 O   0  0  0  0  0  2           0  0  0
    1.6651   -2.9358    1.3300 O   0  0  0  0  0  2           0  0  0
    1.4520   -0.0000   -0.0000 N   0  0  0  0  0  3           0  0  0
    3.5349    0.7744   -0.0098 N   0  0  0  0  0  3           0  0  0
    3.5520   -0.5954   -0.0182 C   0  0  0  0  0  4           0  0  0
    2.2630    1.1187    0.0000 C   0  0  0  0  0  4           0  0  0
    2.2699   -1.1128   -0.0158 C   0  0  0  0  0  4           0  0  0
   -2.0541    0.0021    5.4181 C   0  0  0  0  0  4           0  0  0
   -1.5352    0.0010    4.0443 C   0  0  0  0  0  4           0  0  0
   -3.4309    0.0145    5.7337 C   0  0  0  0  0  4           0  0  0
   -0.5420    0.0000    1.3967 C   0  0  0  0  0  4           0  0  0
   -1.1454    0.0198    6.4959 C   0  0  0  0  0  4           0  0  0
   -1.2932   -1.2047    3.3692 C   0  0  0  0  0  4           0  0  0
   -1.2687    1.2058    3.3772 C   0  0  0  0  0  4           0  0  0
   -3.8692    0.0495    7.0671 C   0  0  0  0  0  4           0  0  0
   -0.8000   -1.2052    2.0614 C   0  0  0  0  0  4           0  0  0
   -0.7753    1.2056    2.0695 C   0  0  0  0  0  4           0  0  0
   -1.5833    0.0567    7.8223 C   0  0  0  0  0  4           0  0  0
   -2.9439    0.0752    8.1069 C   0  0  0  0  0  4           0  0  0
   -4.4633   -0.0894    4.6819 C   0  0  0  0  0  4           0  0  0
    1.7929   -2.5122   -0.0206 C   0  0  0  0  0  4           0  0  0
   -0.0000    0.0000    0.0000 C   0  0  0  0  0  4           0  0  0
    1.7662    2.5212    0.0173 C   0  0  0  0  0  4           0  0  0
    2.4095    4.9641    0.0301 C   0  0  0  0  0  4           0  0  0
    2.7007    5.8437    0.9955 C   0  0  0  0  0  4           0  0  0
    2.9001    3.5459    0.0128 C   0  0  0  0  0  4           0  0  0
  1  7  1  0     0  0
  2 22  2  0     0  0
  3 22  1  0     0  0
  4 23  1  0     0  0
  5  8  1  0     0  0
  5  9  1  0     0  0
  5 24  1  0     0  0
  6  7  1  0     0  0
  6  8  2  0     0  0
  7  9  2  0     0  0
  8 25  1  0     0  0
  9 23  1  0     0  0
 10 11  1  0     0  0
 10 12  1  0     0  0
 10 14  2  0     0  0
 11 15  2  0     0  0
 11 16  1  0     0  0
 12 17  2  0     0  0
 12 22  1  0     0  0
 13 18  2  0     0  0
 13 19  1  0     0  0
 13 24  1  0     0  0
 14 20  1  0     0  0
 15 18  1  0     0  0
 16 19  2  0     0  0
 17 21  1  0     0  0
 20 21  2  0     0  0
 25 28  1  0     0  0
 26 27  2  0     0  0
 26 28  1  0     0  0
M  END
> <standard_type>
pIC50

> <# Confs.>
25

> <canonical_smiles>
OCC1=C(Cl)N=C(CCC=C)N1CC2=CC=C(C3=CC=CC=C3C(O)=O)C=C2

> <standard_relation>
=

> <Publication_ID>
nan

> <predicted_activity_value>
6.958607314841775

> <actual_activity_value>
7.096910013008056

> <Compound>
4

> <standard_units>
nM

> hash
5278952710938231999

$$$$
4_
XXILIB    08252103443D 0   0.00000     0.00000

 28 30  0     1  0            999 V2000
    5.0139   -1.4723   -0.0265 Cl  0  0  0  0  0  1           0  0  0
    0.8237    1.1684    6.4696 O   0  0  0  0  0  2           0  0  0
    0.8778   -1.0951    6.3442 O   0  0  0  0  0  2           0  0  0
    1.6651   -2.9358    1.3300 O   0  0  0  0  0  2           0  0  0
    1.4520   -0.0000   -0.0000 N   0  0  0  0  0  3           0  0  0
    3.5349    0.7744   -0.0098 N   0  0  0  0  0  3           0  0  0
    3.5520   -0.5954   -0.0182 C   0  0  0  0  0  4           0  0  0
    2.2630    1.1187    0.0000 C   0  0  0  0  0  4           0  0  0
    2.2699   -1.1128   -0.0158 C   0  0  0  0  0  4           0  0  0
   -2.0541    0.0021    5.4181 C   0  0  0  0  0  4           0  0  0
   -1.5352    0.0010    4.0443 C   0  0  0  0  0  4           0  0  0
   -1.2296   -0.0091    6.5651 C   0  0  0  0  0  4           0  0  0
   -0.5420    0.0000    1.3967 C   0  0  0  0  0  4           0  0  0
   -3.4483   -0.0145    5.6262 C   0  0  0  0  0  4           0  0  0
   -1.2932   -1.2047    3.3692 C   0  0  0  0  0  4           0  0  0
   -1.2687    1.2058    3.3772 C   0  0  0  0  0  4           0  0  0
   -1.7822   -0.0419    7.8554 C   0  0  0  0  0  4           0  0  0
   -0.8000   -1.2052    2.0614 C   0  0  0  0  0  4           0  0  0
   -0.7753    1.2056    2.0695 C   0  0  0  0  0  4           0  0  0
   -3.9966   -0.0493    6.9109 C   0  0  0  0  0  4           0  0  0
   -3.1638   -0.0666    8.0240 C   0  0  0  0  0  4           0  0  0
    0.2404    0.0939    6.4582 C   0  0  0  0  0  4           0  0  0
    1.7929   -2.5122   -0.0206 C   0  0  0  0  0  4           0  0  0
   -0.0000    0.0000    0.0000 C   0  0  0  0  0  4           0  0  0
    1.7662    2.5212    0.0173 C   0  0  0  0  0  4           0  0  0
    2.0055    4.8334   -0.9719 C   0  0  0  0  0  4           0  0  0
    1.4780    5.4480   -2.0369 C   0  0  0  0  0  4           0  0  0
    2.4992    3.4162   -0.9815 C   0  0  0  0  0  4           0  0  0
  1  7  1  0     0  0
  2 22  2  0     0  0
  3 22  1  0     0  0
  4 23  1  0     0  0
  5  8  1  0     0  0
  5  9  1  0     0  0
  5 24  1  0     0  0
  6  7  1  0     0  0
  6  8  2  0     0  0
  7  9  2  0     0  0
  8 25  1  0     0  0
  9 23  1  0     0  0
 10 11  1  0     0  0
 10 12  1  0     0  0
 10 14  2  0     0  0
 11 15  2  0     0  0
 11 16  1  0     0  0
 12 17  2  0     0  0
 12 22  1  0     0  0
 13 18  2  0     0  0
 13 19  1  0     0  0
 13 24  1  0     0  0
 14 20  1  0     0  0
 15 18  1  0     0  0
 16 19  2  0     0  0
 17 21  1  0     0  0
 20 21  2  0     0  0
 25 28  1  0     0  0
 26 27  2  0     0  0
 26 28  1  0     0  0
M  END
> <standard_type>
pIC50

> <# Confs.>
25

> <canonical_smiles>
OCC1=C(Cl)N=C(CCC=C)N1CC2=CC=C(C3=CC=CC=C3C(O)=O)C=C2

> <standard_relation>
=

> <Publication_ID>
nan

> <predicted_activity_value>
6.958607314841775

> <actual_activity_value>
7.096910013008056

> <Compound>
4

> <standard_units>
nM

> hash
5278952710938231999

$$$$
4_
XXILIB    08252103443D 0   0.00000     0.00000

 28 30  0     1  0            999 V2000
    5.0139   -1.4723   -0.0265 Cl  0  0  0  0  0  1           0  0  0
    0.1472   -2.3445    6.0466 O   0  0  0  0  0  2           0  0  0
    0.9792   -0.3067    6.5917 O   0  0  0  0  0  2           0  0  0
    1.6651   -2.9358    1.3300 O   0  0  0  0  0  2           0  0  0
    1.4520   -0.0000   -0.0000 N   0  0  0  0  0  3           0  0  0
    3.5349    0.7744   -0.0098 N   0  0  0  0  0  3           0  0  0
    3.5520   -0.5954   -0.0182 C   0  0  0  0  0  4           0  0  0
    2.2630    1.1187    0.0000 C   0  0  0  0  0  4           0  0  0
    2.2699   -1.1128   -0.0158 C   0  0  0  0  0  4           0  0  0
   -2.0541    0.0021    5.4181 C   0  0  0  0  0  4           0  0  0
   -1.5352    0.0010    4.0443 C   0  0  0  0  0  4           0  0  0
   -1.3828   -0.5957    6.5077 C   0  0  0  0  0  4           0  0  0
   -0.5420    0.0000    1.3967 C   0  0  0  0  0  4           0  0  0
   -3.3019    0.6032    5.6810 C   0  0  0  0  0  4           0  0  0
   -1.2932   -1.2047    3.3692 C   0  0  0  0  0  4           0  0  0
   -1.2687    1.2058    3.3772 C   0  0  0  0  0  4           0  0  0
   -1.9435   -0.5935    7.7949 C   0  0  0  0  0  4           0  0  0
   -0.8000   -1.2052    2.0614 C   0  0  0  0  0  4           0  0  0
   -0.7753    1.2056    2.0695 C   0  0  0  0  0  4           0  0  0
   -3.8596    0.6028    6.9622 C   0  0  0  0  0  4           0  0  0
   -3.1822    0.0016    8.0170 C   0  0  0  0  0  4           0  0  0
   -0.0322   -1.1754    6.3563 C   0  0  0  0  0  4           0  0  0
    1.7929   -2.5122   -0.0206 C   0  0  0  0  0  4           0  0  0
   -0.0000    0.0000    0.0000 C   0  0  0  0  0  4           0  0  0
    1.7662    2.5212    0.0173 C   0  0  0  0  0  4           0  0  0
    2.3613    2.9476   -2.4005 C   0  0  0  0  0  4           0  0  0
    1.8121    3.6774   -3.3783 C   0  0  0  0  0  4           0  0  0
    2.4992    3.4162   -0.9815 C   0  0  0  0  0  4           0  0  0
  1  7  1  0     0  0
  2 22  2  0     0  0
  3 22  1  0     0  0
  4 23  1  0     0  0
  5  8  1  0     0  0
  5  9  1  0     0  0
  5 24  1  0     0  0
  6  7  1  0     0  0
  6  8  2  0     0  0
  7  9  2  0     0  0
  8 25  1  0     0  0
  9 23  1  0     0  0
 10 11  1  0     0  0
 10 12  1  0     0  0
 10 14  2  0     0  0
 11 15  2  0     0  0
 11 16  1  0     0  0
 12 17  2  0     0  0
 12 22  1  0     0  0
 13 18  2  0     0  0
 13 19  1  0     0  0
 13 24  1  0     0  0
 14 20  1  0     0  0
 15 18  1  0     0  0
 16 19  2  0     0  0
 17 21  1  0     0  0
 20 21  2  0     0  0
 25 28  1  0     0  0
 26 27  2  0     0  0
 26 28  1  0     0  0
M  END
> <standard_type>
pIC50

> <# Confs.>
25

> <canonical_smiles>
OCC1=C(Cl)N=C(CCC=C)N1CC2=CC=C(C3=CC=CC=C3C(O)=O)C=C2

> <standard_relation>
=

> <Publication_ID>
nan

> <predicted_activity_value>
6.958607314841775

> <actual_activity_value>
7.096910013008056

> <Compound>
4

> <standard_units>
nM

> hash
5278952710938231999

$$$$
4_
XXILIB    08252103443D 0   0.00000     0.00000

 28 30  0     1  0            999 V2000
    5.0139    1.4723    0.0265 Cl  0  0  0  0  0  1           0  0  0
   -2.0073    3.3018    5.2105 O   0  0  0  0  0  2           0  0  0
   -4.0668    2.5488    4.6334 O   0  0  0  0  0  2           0  0  0
    1.6651    2.9358   -1.3300 O   0  0  0  0  0  2           0  0  0
    1.4520    0.0000    0.0000 N   0  0  0  0  0  3           0  0  0
    3.5349   -0.7744    0.0098 N   0  0  0  0  0  3           0  0  0
    3.5520    0.5954    0.0182 C   0  0  0  0  0  4           0  0  0
    2.2630   -1.1187    0.0000 C   0  0  0  0  0  4           0  0  0
    2.2699    1.1128    0.0158 C   0  0  0  0  0  4           0  0  0
   -2.1276    0.0306    5.3896 C   0  0  0  0  0  4           0  0  0
   -1.5868    0.0219    4.0243 C   0  0  0  0  0  4           0  0  0
   -2.6856    1.1746    6.0021 C   0  0  0  0  0  4           0  0  0
   -0.5420    0.0000    1.3967 C   0  0  0  0  0  4           0  0  0
   -2.0717   -1.1498    6.1584 C   0  0  0  0  0  4           0  0  0
   -0.5204    0.8613    3.6691 C   0  0  0  0  0  4           0  0  0
   -2.1258   -0.8250    3.0446 C   0  0  0  0  0  4           0  0  0
   -3.1570    1.1327    7.3240 C   0  0  0  0  0  4           0  0  0
   -0.0055    0.8522    2.3697 C   0  0  0  0  0  4           0  0  0
   -1.6113   -0.8342    1.7450 C   0  0  0  0  0  4           0  0  0
   -2.5394   -1.1893    7.4745 C   0  0  0  0  0  4           0  0  0
   -3.0781   -0.0479    8.0574 C   0  0  0  0  0  4           0  0  0
   -2.8695    2.4360    5.2551 C   0  0  0  0  0  4           0  0  0
    1.7929    2.5122    0.0206 C   0  0  0  0  0  4           0  0  0
    0.0000    0.0000    0.0000 C   0  0  0  0  0  4           0  0  0
    1.7662   -2.5212   -0.0173 C   0  0  0  0  0  4           0  0  0
    1.0530   -4.5011    1.3803 C   0  0  0  0  0  4           0  0  0
   -0.1075   -4.8851    1.9243 C   0  0  0  0  0  4           0  0  0
    1.5541   -3.0865    1.3867 C   0  0  0  0  0  4           0  0  0
  1  7  1  0     0  0
  2 22  2  0     0  0
  3 22  1  0     0  0
  4 23  1  0     0  0
  5  8  1  0     0  0
  5  9  1  0     0  0
  5 24  1  0     0  0
  6  7  1  0     0  0
  6  8  2  0     0  0
  7  9  2  0     0  0
  8 25  1  0     0  0
  9 23  1  0     0  0
 10 11  1  0     0  0
 10 12  1  0     0  0
 10 14  2  0     0  0
 11 15  2  0     0  0
 11 16  1  0     0  0
 12 17  2  0     0  0
 12 22  1  0     0  0
 13 18  2  0     0  0
 13 19  1  0     0  0
 13 24  1  0     0  0
 14 20  1  0     0  0
 15 18  1  0     0  0
 16 19  2  0     0  0
 17 21  1  0     0  0
 20 21  2  0     0  0
 25 28  1  0     0  0
 26 27  2  0     0  0
 26 28  1  0     0  0
M  END
> <standard_type>
pIC50

> <# Confs.>
25

> <canonical_smiles>
OCC1=C(Cl)N=C(CCC=C)N1CC2=CC=C(C3=CC=CC=C3C(O)=O)C=C2

> <standard_relation>
=

> <Publication_ID>
nan

> <predicted_activity_value>
6.958607314841775

> <actual_activity_value>
7.096910013008056

> <Compound>
4

> <standard_units>
nM

> hash
5278952710938231999

$$$$
4_
XXILIB    08252103443D 0   0.00000     0.00000

 28 30  0     1  0            999 V2000
    5.0139   -1.4723   -0.0265 Cl  0  0  0  0  0  1           0  0  0
    0.8237    1.1684    6.4696 O   0  0  0  0  0  2           0  0  0
    0.8778   -1.0951    6.3442 O   0  0  0  0  0  2           0  0  0
    1.6651   -2.9358    1.3300 O   0  0  0  0  0  2           0  0  0
    1.4520   -0.0000   -0.0000 N   0  0  0  0  0  3           0  0  0
    3.5349    0.7744   -0.0098 N   0  0  0  0  0  3           0  0  0
    3.5520   -0.5954   -0.0182 C   0  0  0  0  0  4           0  0  0
    2.2630    1.1187    0.0000 C   0  0  0  0  0  4           0  0  0
    2.2699   -1.1128   -0.0158 C   0  0  0  0  0  4           0  0  0
   -2.0541    0.0021    5.4181 C   0  0  0  0  0  4           0  0  0
   -1.5352    0.0010    4.0443 C   0  0  0  0  0  4           0  0  0
   -1.2296   -0.0091    6.5651 C   0  0  0  0  0  4           0  0  0
   -0.5420    0.0000    1.3967 C   0  0  0  0  0  4           0  0  0
   -3.4483   -0.0145    5.6262 C   0  0  0  0  0  4           0  0  0
   -1.2932   -1.2047    3.3692 C   0  0  0  0  0  4           0  0  0
   -1.2687    1.2058    3.3772 C   0  0  0  0  0  4           0  0  0
   -1.7822   -0.0419    7.8554 C   0  0  0  0  0  4           0  0  0
   -0.8000   -1.2052    2.0614 C   0  0  0  0  0  4           0  0  0
   -0.7753    1.2056    2.0695 C   0  0  0  0  0  4           0  0  0
   -3.9966   -0.0493    6.9109 C   0  0  0  0  0  4           0  0  0
   -3.1638   -0.0666    8.0240 C   0  0  0  0  0  4           0  0  0
    0.2404    0.0939    6.4582 C   0  0  0  0  0  4           0  0  0
    1.7929   -2.5122   -0.0206 C   0  0  0  0  0  4           0  0  0
   -0.0000    0.0000    0.0000 C   0  0  0  0  0  4           0  0  0
    1.7662    2.5212    0.0173 C   0  0  0  0  0  4           0  0  0
    2.3613    2.9476   -2.4005 C   0  0  0  0  0  4           0  0  0
    1.8121    3.6774   -3.3783 C   0  0  0  0  0  4           0  0  0
    2.4992    3.4162   -0.9815 C   0  0  0  0  0  4           0  0  0
  1  7  1  0     0  0
  2 22  2  0     0  0
  3 22  1  0     0  0
  4 23  1  0     0  0
  5  8  1  0     0  0
  5  9  1  0     0  0
  5 24  1  0     0  0
  6  7  1  0     0  0
  6  8  2  0     0  0
  7  9  2  0     0  0
  8 25  1  0     0  0
  9 23  1  0     0  0
 10 11  1  0     0  0
 10 12  1  0     0  0
 10 14  2  0     0  0
 11 15  2  0     0  0
 11 16  1  0     0  0
 12 17  2  0     0  0
 12 22  1  0     0  0
 13 18  2  0     0  0
 13 19  1  0     0  0
 13 24  1  0     0  0
 14 20  1  0     0  0
 15 18  1  0     0  0
 16 19  2  0     0  0
 17 21  1  0     0  0
 20 21  2  0     0  0
 25 28  1  0     0  0
 26 27  2  0     0  0
 26 28  1  0     0  0
M  END
> <standard_type>
pIC50

> <# Confs.>
25

> <canonical_smiles>
OCC1=C(Cl)N=C(CCC=C)N1CC2=CC=C(C3=CC=CC=C3C(O)=O)C=C2

> <standard_relation>
=

> <Publication_ID>
nan

> <predicted_activity_value>
6.958607314841775

> <actual_activity_value>
7.096910013008056

> <Compound>
4

> <standard_units>
nM

> hash
5278952710938231999

$$$$
4_
XXILIB    08252103443D 0   0.00000     0.00000

 28 30  0     1  0            999 V2000
    5.0139   -1.4723   -0.0265 Cl  0  0  0  0  0  1           0  0  0
   -4.5347   -0.8317    3.7892 O   0  0  0  0  0  2           0  0  0
   -4.3373   -2.6213    5.1676 O   0  0  0  0  0  2           0  0  0
    1.6651   -2.9358    1.3300 O   0  0  0  0  0  2           0  0  0
    1.4520   -0.0000   -0.0000 N   0  0  0  0  0  3           0  0  0
    3.5349    0.7744   -0.0098 N   0  0  0  0  0  3           0  0  0
    3.5520   -0.5954   -0.0182 C   0  0  0  0  0  4           0  0  0
    2.2630    1.1187    0.0000 C   0  0  0  0  0  4           0  0  0
    2.2699   -1.1128   -0.0158 C   0  0  0  0  0  4           0  0  0
   -2.0541    0.0021    5.4181 C   0  0  0  0  0  4           0  0  0
   -1.5352    0.0010    4.0443 C   0  0  0  0  0  4           0  0  0
   -3.2891   -0.5753    5.7878 C   0  0  0  0  0  4           0  0  0
   -0.5420    0.0000    1.3967 C   0  0  0  0  0  4           0  0  0
   -1.3075    0.6330    6.4341 C   0  0  0  0  0  4           0  0  0
   -1.2932   -1.2047    3.3692 C   0  0  0  0  0  4           0  0  0
   -1.2687    1.2058    3.3772 C   0  0  0  0  0  4           0  0  0
   -3.7509   -0.5143    7.1123 C   0  0  0  0  0  4           0  0  0
   -0.8000   -1.2052    2.0614 C   0  0  0  0  0  4           0  0  0
   -0.7753    1.2056    2.0695 C   0  0  0  0  0  4           0  0  0
   -1.7695    0.6946    7.7514 C   0  0  0  0  0  4           0  0  0
   -2.9918    0.1245    8.0888 C   0  0  0  0  0  4           0  0  0
   -4.1057   -1.3341    4.8180 C   0  0  0  0  0  4           0  0  0
    1.7929   -2.5122   -0.0206 C   0  0  0  0  0  4           0  0  0
   -0.0000    0.0000    0.0000 C   0  0  0  0  0  4           0  0  0
    1.7662    2.5212    0.0173 C   0  0  0  0  0  4           0  0  0
    2.0055    4.8334   -0.9719 C   0  0  0  0  0  4           0  0  0
    2.7749    5.8907   -0.6884 C   0  0  0  0  0  4           0  0  0
    2.4992    3.4162   -0.9815 C   0  0  0  0  0  4           0  0  0
  1  7  1  0     0  0
  2 22  2  0     0  0
  3 22  1  0     0  0
  4 23  1  0     0  0
  5  8  1  0     0  0
  5  9  1  0     0  0
  5 24  1  0     0  0
  6  7  1  0     0  0
  6  8  2  0     0  0
  7  9  2  0     0  0
  8 25  1  0     0  0
  9 23  1  0     0  0
 10 11  1  0     0  0
 10 12  1  0     0  0
 10 14  2  0     0  0
 11 15  2  0     0  0
 11 16  1  0     0  0
 12 17  2  0     0  0
 12 22  1  0     0  0
 13 18  2  0     0  0
 13 19  1  0     0  0
 13 24  1  0     0  0
 14 20  1  0     0  0
 15 18  1  0     0  0
 16 19  2  0     0  0
 17 21  1  0     0  0
 20 21  2  0     0  0
 25 28  1  0     0  0
 26 27  2  0     0  0
 26 28  1  0     0  0
M  END
> <standard_type>
pIC50

> <# Confs.>
25

> <canonical_smiles>
OCC1=C(Cl)N=C(CCC=C)N1CC2=CC=C(C3=CC=CC=C3C(O)=O)C=C2

> <standard_relation>
=

> <Publication_ID>
nan

> <predicted_activity_value>
6.958607314841775

> <actual_activity_value>
7.096910013008056

> <Compound>
4

> <standard_units>
nM

> hash
5278952710938231999

$$$$
4_
XXILIB    08252103443D 0   0.00000     0.00000

 28 30  0     1  0            999 V2000
    5.0139    1.4723    0.0265 Cl  0  0  0  0  0  1           0  0  0
   -5.0983    0.0139    4.0109 O   0  0  0  0  0  2           0  0  0
   -4.4712   -2.1150    4.4765 O   0  0  0  0  0  2           0  0  0
    1.6651    2.9358   -1.3300 O   0  0  0  0  0  2           0  0  0
    1.4520    0.0000    0.0000 N   0  0  0  0  0  3           0  0  0
    3.5349   -0.7744    0.0098 N   0  0  0  0  0  3           0  0  0
    3.5520    0.5954    0.0182 C   0  0  0  0  0  4           0  0  0
    2.2630   -1.1187    0.0000 C   0  0  0  0  0  4           0  0  0
    2.2699    1.1128    0.0158 C   0  0  0  0  0  4           0  0  0
   -2.1248   -0.0336    5.3906 C   0  0  0  0  0  4           0  0  0
   -1.5855   -0.0233    4.0248 C   0  0  0  0  0  4           0  0  0
   -3.4710   -0.3321    5.6973 C   0  0  0  0  0  4           0  0  0
   -0.5420    0.0000    1.3967 C   0  0  0  0  0  4           0  0  0
   -1.2764    0.2968    6.4670 C   0  0  0  0  0  4           0  0  0
   -2.1086    0.8424    3.0527 C   0  0  0  0  0  4           0  0  0
   -0.5360   -0.8803    3.6616 C   0  0  0  0  0  4           0  0  0
   -3.9395   -0.2933    7.0203 C   0  0  0  0  0  4           0  0  0
   -1.5945    0.8522    1.7530 C   0  0  0  0  0  4           0  0  0
   -0.0218   -0.8708    2.3619 C   0  0  0  0  0  4           0  0  0
   -1.7447    0.3369    7.7829 C   0  0  0  0  0  4           0  0  0
   -3.0759    0.0456    8.0583 C   0  0  0  0  0  4           0  0  0
   -4.4191   -0.7738    4.6537 C   0  0  0  0  0  4           0  0  0
    1.7929    2.5122    0.0206 C   0  0  0  0  0  4           0  0  0
    0.0000    0.0000    0.0000 C   0  0  0  0  0  4           0  0  0
    1.7662   -2.5212   -0.0173 C   0  0  0  0  0  4           0  0  0
    2.4164   -2.9077   -2.4276 C   0  0  0  0  0  4           0  0  0
    1.8898   -3.6211   -3.4296 C   0  0  0  0  0  4           0  0  0
    2.5220   -3.3997   -1.0137 C   0  0  0  0  0  4           0  0  0
  1  7  1  0     0  0
  2 22  2  0     0  0
  3 22  1  0     0  0
  4 23  1  0     0  0
  5  8  1  0     0  0
  5  9  1  0     0  0
  5 24  1  0     0  0
  6  7  1  0     0  0
  6  8  2  0     0  0
  7  9  2  0     0  0
  8 25  1  0     0  0
  9 23  1  0     0  0
 10 11  1  0     0  0
 10 12  1  0     0  0
 10 14  2  0     0  0
 11 15  2  0     0  0
 11 16  1  0     0  0
 12 17  2  0     0  0
 12 22  1  0     0  0
 13 18  2  0     0  0
 13 19  1  0     0  0
 13 24  1  0     0  0
 14 20  1  0     0  0
 15 18  1  0     0  0
 16 19  2  0     0  0
 17 21  1  0     0  0
 20 21  2  0     0  0
 25 28  1  0     0  0
 26 27  2  0     0  0
 26 28  1  0     0  0
M  END
> <standard_type>
pIC50

> <# Confs.>
25

> <canonical_smiles>
OCC1=C(Cl)N=C(CCC=C)N1CC2=CC=C(C3=CC=CC=C3C(O)=O)C=C2

> <standard_relation>
=

> <Publication_ID>
nan

> <predicted_activity_value>
6.958607314841775

> <actual_activity_value>
7.096910013008056

> <Compound>
4

> <standard_units>
nM

> hash
5278952710938231999

$$$$
4_
XXILIB    08252103443D 0   0.00000     0.00000

 28 30  0     1  0            999 V2000
    5.0139    1.4723    0.0265 Cl  0  0  0  0  0  1           0  0  0
   -2.4316    3.2277    5.2594 O   0  0  0  0  0  2           0  0  0
   -0.3444    2.6490    5.9307 O   0  0  0  0  0  2           0  0  0
    1.6651    2.9358   -1.3300 O   0  0  0  0  0  2           0  0  0
    1.4520    0.0000    0.0000 N   0  0  0  0  0  3           0  0  0
    3.5349   -0.7744    0.0098 N   0  0  0  0  0  3           0  0  0
    3.5520    0.5954    0.0182 C   0  0  0  0  0  4           0  0  0
    2.2630   -1.1187    0.0000 C   0  0  0  0  0  4           0  0  0
    2.2699    1.1128    0.0158 C   0  0  0  0  0  4           0  0  0
   -2.1248   -0.0336    5.3906 C   0  0  0  0  0  4           0  0  0
   -1.5855   -0.0233    4.0248 C   0  0  0  0  0  4           0  0  0
   -2.1210    1.0943    6.2411 C   0  0  0  0  0  4           0  0  0
   -0.5420    0.0000    1.3967 C   0  0  0  0  0  4           0  0  0
   -2.6550   -1.2317    5.9112 C   0  0  0  0  0  4           0  0  0
   -2.1086    0.8424    3.0527 C   0  0  0  0  0  4           0  0  0
   -0.5360   -0.8803    3.6616 C   0  0  0  0  0  4           0  0  0
   -2.6200    1.0168    7.5511 C   0  0  0  0  0  4           0  0  0
   -1.5945    0.8522    1.7530 C   0  0  0  0  0  4           0  0  0
   -0.0218   -0.8708    2.3619 C   0  0  0  0  0  4           0  0  0
   -3.1495   -1.3077    7.2159 C   0  0  0  0  0  4           0  0  0
   -3.1284   -0.1851    8.0358 C   0  0  0  0  0  4           0  0  0
   -1.6678    2.4172    5.7641 C   0  0  0  0  0  4           0  0  0
    1.7929    2.5122    0.0206 C   0  0  0  0  0  4           0  0  0
    0.0000    0.0000    0.0000 C   0  0  0  0  0  4           0  0  0
    1.7662   -2.5212   -0.0173 C   0  0  0  0  0  4           0  0  0
    2.4164   -2.9077   -2.4276 C   0  0  0  0  0  4           0  0  0
    1.8898   -3.6211   -3.4296 C   0  0  0  0  0  4           0  0  0
    2.5220   -3.3997   -1.0137 C   0  0  0  0  0  4           0  0  0
  1  7  1  0     0  0
  2 22  2  0     0  0
  3 22  1  0     0  0
  4 23  1  0     0  0
  5  8  1  0     0  0
  5  9  1  0     0  0
  5 24  1  0     0  0
  6  7  1  0     0  0
  6  8  2  0     0  0
  7  9  2  0     0  0
  8 25  1  0     0  0
  9 23  1  0     0  0
 10 11  1  0     0  0
 10 12  1  0     0  0
 10 14  2  0     0  0
 11 15  2  0     0  0
 11 16  1  0     0  0
 12 17  2  0     0  0
 12 22  1  0     0  0
 13 18  2  0     0  0
 13 19  1  0     0  0
 13 24  1  0     0  0
 14 20  1  0     0  0
 15 18  1  0     0  0
 16 19  2  0     0  0
 17 21  1  0     0  0
 20 21  2  0     0  0
 25 28  1  0     0  0
 26 27  2  0     0  0
 26 28  1  0     0  0
M  END
> <standard_type>
pIC50

> <# Confs.>
25

> <canonical_smiles>
OCC1=C(Cl)N=C(CCC=C)N1CC2=CC=C(C3=CC=CC=C3C(O)=O)C=C2

> <standard_relation>
=

> <Publication_ID>
nan

> <predicted_activity_value>
6.958607314841775

> <actual_activity_value>
7.096910013008056

> <Compound>
4

> <standard_units>
nM

> hash
5278952710938231999

$$$$
4_
XXILIB    08252103443D 0   0.00000     0.00000

 28 30  0     1  0            999 V2000
    5.0139    1.4723    0.0265 Cl  0  0  0  0  0  1           0  0  0
   -3.1113   -2.7923    4.4321 O   0  0  0  0  0  2           0  0  0
   -5.0896   -1.7033    4.6378 O   0  0  0  0  0  2           0  0  0
    1.6651    2.9358   -1.3300 O   0  0  0  0  0  2           0  0  0
    1.4520    0.0000    0.0000 N   0  0  0  0  0  3           0  0  0
    3.5349   -0.7744    0.0098 N   0  0  0  0  0  3           0  0  0
    3.5520    0.5954    0.0182 C   0  0  0  0  0  4           0  0  0
    2.2630   -1.1187    0.0000 C   0  0  0  0  0  4           0  0  0
    2.2699    1.1128    0.0158 C   0  0  0  0  0  4           0  0  0
   -2.1248   -0.0336    5.3906 C   0  0  0  0  0  4           0  0  0
   -1.5855   -0.0233    4.0248 C   0  0  0  0  0  4           0  0  0
   -3.1913   -0.8626    5.8037 C   0  0  0  0  0  4           0  0  0
   -0.5420    0.0000    1.3967 C   0  0  0  0  0  4           0  0  0
   -1.5813    0.8441    6.3508 C   0  0  0  0  0  4           0  0  0
   -2.1086    0.8424    3.0527 C   0  0  0  0  0  4           0  0  0
   -0.5360   -0.8803    3.6616 C   0  0  0  0  0  4           0  0  0
   -3.6887   -0.8052    7.1155 C   0  0  0  0  0  4           0  0  0
   -1.5945    0.8522    1.7530 C   0  0  0  0  0  4           0  0  0
   -0.0218   -0.8708    2.3619 C   0  0  0  0  0  4           0  0  0
   -2.0787    0.9014    7.6552 C   0  0  0  0  0  4           0  0  0
   -3.1339    0.0799    8.0356 C   0  0  0  0  0  4           0  0  0
   -3.7729   -1.8771    4.9006 C   0  0  0  0  0  4           0  0  0
    1.7929    2.5122    0.0206 C   0  0  0  0  0  4           0  0  0
    0.0000    0.0000    0.0000 C   0  0  0  0  0  4           0  0  0
    1.7662   -2.5212   -0.0173 C   0  0  0  0  0  4           0  0  0
    2.0055   -4.8334    0.9719 C   0  0  0  0  0  4           0  0  0
    1.4780   -5.4480    2.0369 C   0  0  0  0  0  4           0  0  0
    2.4992   -3.4162    0.9815 C   0  0  0  0  0  4           0  0  0
  1  7  1  0     0  0
  2 22  2  0     0  0
  3 22  1  0     0  0
  4 23  1  0     0  0
  5  8  1  0     0  0
  5  9  1  0     0  0
  5 24  1  0     0  0
  6  7  1  0     0  0
  6  8  2  0     0  0
  7  9  2  0     0  0
  8 25  1  0     0  0
  9 23  1  0     0  0
 10 11  1  0     0  0
 10 12  1  0     0  0
 10 14  2  0     0  0
 11 15  2  0     0  0
 11 16  1  0     0  0
 12 17  2  0     0  0
 12 22  1  0     0  0
 13 18  2  0     0  0
 13 19  1  0     0  0
 13 24  1  0     0  0
 14 20  1  0     0  0
 15 18  1  0     0  0
 16 19  2  0     0  0
 17 21  1  0     0  0
 20 21  2  0     0  0
 25 28  1  0     0  0
 26 27  2  0     0  0
 26 28  1  0     0  0
M  END
> <standard_type>
pIC50

> <# Confs.>
25

> <canonical_smiles>
OCC1=C(Cl)N=C(CCC=C)N1CC2=CC=C(C3=CC=CC=C3C(O)=O)C=C2

> <standard_relation>
=

> <Publication_ID>
nan

> <predicted_activity_value>
6.958607314841775

> <actual_activity_value>
7.096910013008056

> <Compound>
4

> <standard_units>
nM

> hash
5278952710938231999

$$$$
4_
XXILIB    08252103443D 0   0.00000     0.00000

 28 30  0     1  0            999 V2000
    5.0139   -1.4723   -0.0265 Cl  0  0  0  0  0  1           0  0  0
   -2.4316    3.2277    5.2594 O   0  0  0  0  0  2           0  0  0
   -0.3444    2.6490    5.9307 O   0  0  0  0  0  2           0  0  0
    2.5661   -3.2416    0.9229 O   0  0  0  0  0  2           0  0  0
    1.4520   -0.0000   -0.0000 N   0  0  0  0  0  3           0  0  0
    3.5349    0.7744   -0.0098 N   0  0  0  0  0  3           0  0  0
    3.5520   -0.5954   -0.0182 C   0  0  0  0  0  4           0  0  0
    2.2630    1.1187    0.0000 C   0  0  0  0  0  4           0  0  0
    2.2699   -1.1128   -0.0158 C   0  0  0  0  0  4           0  0  0
   -2.1248   -0.0336    5.3906 C   0  0  0  0  0  4           0  0  0
   -1.5855   -0.0233    4.0248 C   0  0  0  0  0  4           0  0  0
   -2.1210    1.0943    6.2411 C   0  0  0  0  0  4           0  0  0
   -0.5420    0.0000    1.3967 C   0  0  0  0  0  4           0  0  0
   -2.6550   -1.2317    5.9112 C   0  0  0  0  0  4           0  0  0
   -2.1086    0.8424    3.0527 C   0  0  0  0  0  4           0  0  0
   -0.5360   -0.8803    3.6616 C   0  0  0  0  0  4           0  0  0
   -2.6200    1.0168    7.5511 C   0  0  0  0  0  4           0  0  0
   -1.5945    0.8522    1.7530 C   0  0  0  0  0  4           0  0  0
   -0.0218   -0.8708    2.3619 C   0  0  0  0  0  4           0  0  0
   -3.1495   -1.3077    7.2159 C   0  0  0  0  0  4           0  0  0
   -3.1284   -0.1851    8.0358 C   0  0  0  0  0  4           0  0  0
   -1.6678    2.4172    5.7641 C   0  0  0  0  0  4           0  0  0
    1.7929   -2.5122   -0.0206 C   0  0  0  0  0  4           0  0  0
    0.0000    0.0000    0.0000 C   0  0  0  0  0  4           0  0  0
    1.7662    2.5212    0.0173 C   0  0  0  0  0  4           0  0  0
    1.0855    4.4775    1.4633 C   0  0  0  0  0  4           0  0  0
   -0.0623    4.8523    2.0400 C   0  0  0  0  0  4           0  0  0
    1.5863    3.0631    1.4349 C   0  0  0  0  0  4           0  0  0
  1  7  1  0     0  0
  2 22  2  0     0  0
  3 22  1  0     0  0
  4 23  1  0     0  0
  5  8  1  0     0  0
  5  9  1  0     0  0
  5 24  1  0     0  0
  6  7  1  0     0  0
  6  8  2  0     0  0
  7  9  2  0     0  0
  8 25  1  0     0  0
  9 23  1  0     0  0
 10 11  1  0     0  0
 10 12  1  0     0  0
 10 14  2  0     0  0
 11 15  2  0     0  0
 11 16  1  0     0  0
 12 17  2  0     0  0
 12 22  1  0     0  0
 13 18  2  0     0  0
 13 19  1  0     0  0
 13 24  1  0     0  0
 14 20  1  0     0  0
 15 18  1  0     0  0
 16 19  2  0     0  0
 17 21  1  0     0  0
 20 21  2  0     0  0
 25 28  1  0     0  0
 26 27  2  0     0  0
 26 28  1  0     0  0
M  END
> <standard_type>
pIC50

> <# Confs.>
25

> <canonical_smiles>
OCC1=C(Cl)N=C(CCC=C)N1CC2=CC=C(C3=CC=CC=C3C(O)=O)C=C2

> <standard_relation>
=

> <Publication_ID>
nan

> <predicted_activity_value>
6.958607314841775

> <actual_activity_value>
7.096910013008056

> <Compound>
4

> <standard_units>
nM

> hash
5278952710938231999

$$$$
4_
XXILIB    08252103443D 0   0.00000     0.00000

 28 30  0     1  0            999 V2000
    5.0139    1.4723    0.0265 Cl  0  0  0  0  0  1           0  0  0
   -2.0073    3.3018    5.2105 O   0  0  0  0  0  2           0  0  0
   -4.0668    2.5488    4.6334 O   0  0  0  0  0  2           0  0  0
    1.6651    2.9358   -1.3300 O   0  0  0  0  0  2           0  0  0
    1.4520    0.0000    0.0000 N   0  0  0  0  0  3           0  0  0
    3.5349   -0.7744    0.0098 N   0  0  0  0  0  3           0  0  0
    3.5520    0.5954    0.0182 C   0  0  0  0  0  4           0  0  0
    2.2630   -1.1187    0.0000 C   0  0  0  0  0  4           0  0  0
    2.2699    1.1128    0.0158 C   0  0  0  0  0  4           0  0  0
   -2.1276    0.0306    5.3896 C   0  0  0  0  0  4           0  0  0
   -1.5868    0.0219    4.0243 C   0  0  0  0  0  4           0  0  0
   -2.6856    1.1746    6.0021 C   0  0  0  0  0  4           0  0  0
   -0.5420    0.0000    1.3967 C   0  0  0  0  0  4           0  0  0
   -2.0717   -1.1498    6.1584 C   0  0  0  0  0  4           0  0  0
   -0.5204    0.8613    3.6691 C   0  0  0  0  0  4           0  0  0
   -2.1258   -0.8250    3.0446 C   0  0  0  0  0  4           0  0  0
   -3.1570    1.1327    7.3240 C   0  0  0  0  0  4           0  0  0
   -0.0055    0.8522    2.3697 C   0  0  0  0  0  4           0  0  0
   -1.6113   -0.8342    1.7450 C   0  0  0  0  0  4           0  0  0
   -2.5394   -1.1893    7.4745 C   0  0  0  0  0  4           0  0  0
   -3.0781   -0.0479    8.0574 C   0  0  0  0  0  4           0  0  0
   -2.8695    2.4360    5.2551 C   0  0  0  0  0  4           0  0  0
    1.7929    2.5122    0.0206 C   0  0  0  0  0  4           0  0  0
    0.0000    0.0000    0.0000 C   0  0  0  0  0  4           0  0  0
    1.7662   -2.5212   -0.0173 C   0  0  0  0  0  4           0  0  0
    1.0855   -4.4775   -1.4633 C   0  0  0  0  0  4           0  0  0
   -0.0623   -4.8523   -2.0400 C   0  0  0  0  0  4           0  0  0
    1.5863   -3.0631   -1.4349 C   0  0  0  0  0  4           0  0  0
  1  7  1  0     0  0
  2 22  2  0     0  0
  3 22  1  0     0  0
  4 23  1  0     0  0
  5  8  1  0     0  0
  5  9  1  0     0  0
  5 24  1  0     0  0
  6  7  1  0     0  0
  6  8  2  0     0  0
  7  9  2  0     0  0
  8 25  1  0     0  0
  9 23  1  0     0  0
 10 11  1  0     0  0
 10 12  1  0     0  0
 10 14  2  0     0  0
 11 15  2  0     0  0
 11 16  1  0     0  0
 12 17  2  0     0  0
 12 22  1  0     0  0
 13 18  2  0     0  0
 13 19  1  0     0  0
 13 24  1  0     0  0
 14 20  1  0     0  0
 15 18  1  0     0  0
 16 19  2  0     0  0
 17 21  1  0     0  0
 20 21  2  0     0  0
 25 28  1  0     0  0
 26 27  2  0     0  0
 26 28  1  0     0  0
M  END
> <standard_type>
pIC50

> <# Confs.>
25

> <canonical_smiles>
OCC1=C(Cl)N=C(CCC=C)N1CC2=CC=C(C3=CC=CC=C3C(O)=O)C=C2

> <standard_relation>
=

> <Publication_ID>
nan

> <predicted_activity_value>
6.958607314841775

> <actual_activity_value>
7.096910013008056

> <Compound>
4

> <standard_units>
nM

> hash
5278952710938231999

$$$$
4_
XXILIB    08252103443D 0   0.00000     0.00000

 28 30  0     1  0            999 V2000
    5.0139   -1.4723   -0.0265 Cl  0  0  0  0  0  1           0  0  0
    0.1472   -2.3445    6.0466 O   0  0  0  0  0  2           0  0  0
    0.9792   -0.3067    6.5917 O   0  0  0  0  0  2           0  0  0
    1.6651   -2.9358    1.3300 O   0  0  0  0  0  2           0  0  0
    1.4520   -0.0000   -0.0000 N   0  0  0  0  0  3           0  0  0
    3.5349    0.7744   -0.0098 N   0  0  0  0  0  3           0  0  0
    3.5520   -0.5954   -0.0182 C   0  0  0  0  0  4           0  0  0
    2.2630    1.1187    0.0000 C   0  0  0  0  0  4           0  0  0
    2.2699   -1.1128   -0.0158 C   0  0  0  0  0  4           0  0  0
   -2.0541    0.0021    5.4181 C   0  0  0  0  0  4           0  0  0
   -1.5352    0.0010    4.0443 C   0  0  0  0  0  4           0  0  0
   -1.3828   -0.5957    6.5077 C   0  0  0  0  0  4           0  0  0
   -0.5420    0.0000    1.3967 C   0  0  0  0  0  4           0  0  0
   -3.3019    0.6032    5.6810 C   0  0  0  0  0  4           0  0  0
   -1.2932   -1.2047    3.3692 C   0  0  0  0  0  4           0  0  0
   -1.2687    1.2058    3.3772 C   0  0  0  0  0  4           0  0  0
   -1.9435   -0.5935    7.7949 C   0  0  0  0  0  4           0  0  0
   -0.8000   -1.2052    2.0614 C   0  0  0  0  0  4           0  0  0
   -0.7753    1.2056    2.0695 C   0  0  0  0  0  4           0  0  0
   -3.8596    0.6028    6.9622 C   0  0  0  0  0  4           0  0  0
   -3.1822    0.0016    8.0170 C   0  0  0  0  0  4           0  0  0
   -0.0322   -1.1754    6.3563 C   0  0  0  0  0  4           0  0  0
    1.7929   -2.5122   -0.0206 C   0  0  0  0  0  4           0  0  0
   -0.0000    0.0000    0.0000 C   0  0  0  0  0  4           0  0  0
    1.7662    2.5212    0.0173 C   0  0  0  0  0  4           0  0  0
    2.4095    4.9641    0.0301 C   0  0  0  0  0  4           0  0  0
    2.7007    5.8437    0.9955 C   0  0  0  0  0  4           0  0  0
    2.9001    3.5459    0.0128 C   0  0  0  0  0  4           0  0  0
  1  7  1  0     0  0
  2 22  2  0     0  0
  3 22  1  0     0  0
  4 23  1  0     0  0
  5  8  1  0     0  0
  5  9  1  0     0  0
  5 24  1  0     0  0
  6  7  1  0     0  0
  6  8  2  0     0  0
  7  9  2  0     0  0
  8 25  1  0     0  0
  9 23  1  0     0  0
 10 11  1  0     0  0
 10 12  1  0     0  0
 10 14  2  0     0  0
 11 15  2  0     0  0
 11 16  1  0     0  0
 12 17  2  0     0  0
 12 22  1  0     0  0
 13 18  2  0     0  0
 13 19  1  0     0  0
 13 24  1  0     0  0
 14 20  1  0     0  0
 15 18  1  0     0  0
 16 19  2  0     0  0
 17 21  1  0     0  0
 20 21  2  0     0  0
 25 28  1  0     0  0
 26 27  2  0     0  0
 26 28  1  0     0  0
M  END
> <standard_type>
pIC50

> <# Confs.>
25

> <canonical_smiles>
OCC1=C(Cl)N=C(CCC=C)N1CC2=CC=C(C3=CC=CC=C3C(O)=O)C=C2

> <standard_relation>
=

> <Publication_ID>
nan

> <predicted_activity_value>
6.958607314841775

> <actual_activity_value>
7.096910013008056

> <Compound>
4

> <standard_units>
nM

> hash
5278952710938231999

$$$$
4_
XXILIB    08252103443D 0   0.00000     0.00000

 28 30  0     1  0            999 V2000
    5.0139    1.4723    0.0265 Cl  0  0  0  0  0  1           0  0  0
   -4.7077   -1.6285    4.1528 O   0  0  0  0  0  2           0  0  0
   -3.1870   -3.0952    4.9762 O   0  0  0  0  0  2           0  0  0
    1.6651    2.9358   -1.3300 O   0  0  0  0  0  2           0  0  0
    1.4520    0.0000    0.0000 N   0  0  0  0  0  3           0  0  0
    3.5349   -0.7744    0.0098 N   0  0  0  0  0  3           0  0  0
    3.5520    0.5954    0.0182 C   0  0  0  0  0  4           0  0  0
    2.2630   -1.1187    0.0000 C   0  0  0  0  0  4           0  0  0
    2.2699    1.1128    0.0158 C   0  0  0  0  0  4           0  0  0
   -2.1248   -0.0336    5.3906 C   0  0  0  0  0  4           0  0  0
   -1.5855   -0.0233    4.0248 C   0  0  0  0  0  4           0  0  0
   -3.1913   -0.8626    5.8037 C   0  0  0  0  0  4           0  0  0
   -0.5420    0.0000    1.3967 C   0  0  0  0  0  4           0  0  0
   -1.5813    0.8441    6.3508 C   0  0  0  0  0  4           0  0  0
   -2.1086    0.8424    3.0527 C   0  0  0  0  0  4           0  0  0
   -0.5360   -0.8803    3.6616 C   0  0  0  0  0  4           0  0  0
   -3.6887   -0.8052    7.1155 C   0  0  0  0  0  4           0  0  0
   -1.5945    0.8522    1.7530 C   0  0  0  0  0  4           0  0  0
   -0.0218   -0.8708    2.3619 C   0  0  0  0  0  4           0  0  0
   -2.0787    0.9014    7.6552 C   0  0  0  0  0  4           0  0  0
   -3.1339    0.0799    8.0356 C   0  0  0  0  0  4           0  0  0
   -3.7729   -1.8771    4.9006 C   0  0  0  0  0  4           0  0  0
    1.7929    2.5122    0.0206 C   0  0  0  0  0  4           0  0  0
    0.0000    0.0000    0.0000 C   0  0  0  0  0  4           0  0  0
    1.7662   -2.5212   -0.0173 C   0  0  0  0  0  4           0  0  0
    2.0055   -4.8334    0.9719 C   0  0  0  0  0  4           0  0  0
    2.7749   -5.8907    0.6884 C   0  0  0  0  0  4           0  0  0
    2.4992   -3.4162    0.9815 C   0  0  0  0  0  4           0  0  0
  1  7  1  0     0  0
  2 22  2  0     0  0
  3 22  1  0     0  0
  4 23  1  0     0  0
  5  8  1  0     0  0
  5  9  1  0     0  0
  5 24  1  0     0  0
  6  7  1  0     0  0
  6  8  2  0     0  0
  7  9  2  0     0  0
  8 25  1  0     0  0
  9 23  1  0     0  0
 10 11  1  0     0  0
 10 12  1  0     0  0
 10 14  2  0     0  0
 11 15  2  0     0  0
 11 16  1  0     0  0
 12 17  2  0     0  0
 12 22  1  0     0  0
 13 18  2  0     0  0
 13 19  1  0     0  0
 13 24  1  0     0  0
 14 20  1  0     0  0
 15 18  1  0     0  0
 16 19  2  0     0  0
 17 21  1  0     0  0
 20 21  2  0     0  0
 25 28  1  0     0  0
 26 27  2  0     0  0
 26 28  1  0     0  0
M  END
> <standard_type>
pIC50

> <# Confs.>
25

> <canonical_smiles>
OCC1=C(Cl)N=C(CCC=C)N1CC2=CC=C(C3=CC=CC=C3C(O)=O)C=C2

> <standard_relation>
=

> <Publication_ID>
nan

> <predicted_activity_value>
6.958607314841775

> <actual_activity_value>
7.096910013008056

> <Compound>
4

> <standard_units>
nM

> hash
5278952710938231999

$$$$
4_
XXILIB    08252103443D 0   0.00000     0.00000

 28 30  0     1  0            999 V2000
    5.0139    1.4723    0.0265 Cl  0  0  0  0  0  1           0  0  0
   -0.8727    2.9576    5.8729 O   0  0  0  0  0  2           0  0  0
    0.6748    1.3626    6.3235 O   0  0  0  0  0  2           0  0  0
    1.6651    2.9358   -1.3300 O   0  0  0  0  0  2           0  0  0
    1.4520    0.0000    0.0000 N   0  0  0  0  0  3           0  0  0
    3.5349   -0.7744    0.0098 N   0  0  0  0  0  3           0  0  0
    3.5520    0.5954    0.0182 C   0  0  0  0  0  4           0  0  0
    2.2630   -1.1187    0.0000 C   0  0  0  0  0  4           0  0  0
    2.2699    1.1128    0.0158 C   0  0  0  0  0  4           0  0  0
   -2.1248   -0.0336    5.3906 C   0  0  0  0  0  4           0  0  0
   -1.5855   -0.0233    4.0248 C   0  0  0  0  0  4           0  0  0
   -1.6325    0.7845    6.4316 C   0  0  0  0  0  4           0  0  0
   -0.5420    0.0000    1.3967 C   0  0  0  0  0  4           0  0  0
   -3.1732   -0.9208    5.7089 C   0  0  0  0  0  4           0  0  0
   -2.1086    0.8424    3.0527 C   0  0  0  0  0  4           0  0  0
   -0.5360   -0.8803    3.6616 C   0  0  0  0  0  4           0  0  0
   -2.1652    0.7076    7.7284 C   0  0  0  0  0  4           0  0  0
   -1.5945    0.8522    1.7530 C   0  0  0  0  0  4           0  0  0
   -0.0218   -0.8708    2.3619 C   0  0  0  0  0  4           0  0  0
   -3.7008   -0.9976    7.0005 C   0  0  0  0  0  4           0  0  0
   -3.1944   -0.1865    8.0097 C   0  0  0  0  0  4           0  0  0
   -0.5960    1.8077    6.1827 C   0  0  0  0  0  4           0  0  0
    1.7929    2.5122    0.0206 C   0  0  0  0  0  4           0  0  0
    0.0000    0.0000    0.0000 C   0  0  0  0  0  4           0  0  0
    1.7662   -2.5212   -0.0173 C   0  0  0  0  0  4           0  0  0
    2.0055   -4.8334    0.9719 C   0  0  0  0  0  4           0  0  0
    2.7749   -5.8907    0.6884 C   0  0  0  0  0  4           0  0  0
    2.4992   -3.4162    0.9815 C   0  0  0  0  0  4           0  0  0
  1  7  1  0     0  0
  2 22  2  0     0  0
  3 22  1  0     0  0
  4 23  1  0     0  0
  5  8  1  0     0  0
  5  9  1  0     0  0
  5 24  1  0     0  0
  6  7  1  0     0  0
  6  8  2  0     0  0
  7  9  2  0     0  0
  8 25  1  0     0  0
  9 23  1  0     0  0
 10 11  1  0     0  0
 10 12  1  0     0  0
 10 14  2  0     0  0
 11 15  2  0     0  0
 11 16  1  0     0  0
 12 17  2  0     0  0
 12 22  1  0     0  0
 13 18  2  0     0  0
 13 19  1  0     0  0
 13 24  1  0     0  0
 14 20  1  0     0  0
 15 18  1  0     0  0
 16 19  2  0     0  0
 17 21  1  0     0  0
 20 21  2  0     0  0
 25 28  1  0     0  0
 26 27  2  0     0  0
 26 28  1  0     0  0
M  END
> <standard_type>
pIC50

> <# Confs.>
25

> <canonical_smiles>
OCC1=C(Cl)N=C(CCC=C)N1CC2=CC=C(C3=CC=CC=C3C(O)=O)C=C2

> <standard_relation>
=

> <Publication_ID>
nan

> <predicted_activity_value>
6.958607314841775

> <actual_activity_value>
7.096910013008056

> <Compound>
4

> <standard_units>
nM

> hash
5278952710938231999

$$$$
23_
XXILIB    08252103443D 0   0.00000     0.00000

 24 25  0     1  0            999 V2000
   -3.5523    0.0910   -1.4930 Cl  0  0  0  0  0  1           0  0  0
    4.7230   -5.6451   -0.0916 O   0  0  0  0  0  2           0  0  0
    0.1913    2.3803   -2.2938 O   0  0  0  0  0  2           0  0  0
    2.5318   -6.2735   -0.0913 O   0  0  0  0  0  2           0  0  0
   -0.2960    1.5224   -4.3472 O   0  0  0  0  0  2           0  0  0
    0.0000   -0.0000    0.0000 N   0  0  0  0  0  3           0  0  0
   -2.0867    0.0273    0.7629 N   0  0  0  0  0  3           0  0  0
   -2.0968    0.0470   -0.6066 C   0  0  0  0  0  4           0  0  0
   -0.8166   -0.0000    1.1146 C   0  0  0  0  0  4           0  0  0
   -0.8119    0.0298   -1.1172 C   0  0  0  0  0  4           0  0  0
    3.0022   -3.9961   -0.0380 C   0  0  0  0  0  4           0  0  0
    1.9923   -1.3965    0.0000 C   0  0  0  0  0  4           0  0  0
    3.8875   -2.9197   -0.0190 C   0  0  0  0  0  4           0  0  0
    1.6224   -3.7992   -0.0490 C   0  0  0  0  0  4           0  0  0
    3.3783   -1.6210    0.0000 C   0  0  0  0  0  4           0  0  0
    1.1213   -2.4972   -0.0296 C   0  0  0  0  0  4           0  0  0
    3.5356   -5.3686   -0.0755 C   0  0  0  0  0  4           0  0  0
   -0.1196    1.4350   -3.0050 C   0  0  0  0  0  4           0  0  0
    1.4500    0.0000   -0.0000 C   0  0  0  0  0  4           0  0  0
   -0.3325   -0.0274    2.5215 C   0  0  0  0  0  4           0  0  0
   -0.3257    0.0314   -2.5197 C   0  0  0  0  0  4           0  0  0
   -0.1163    1.3731    3.0942 C   0  0  0  0  0  4           0  0  0
    0.3819    1.3927    4.5399 C   0  0  0  0  0  4           0  0  0
    0.5870    2.8001    5.0801 C   0  0  0  0  0  4           0  0  0
  1  8  1  0     0  0
  2 17  2  0     0  0
  3 18  2  0     0  0
  4 17  1  0     0  0
  5 18  1  0     0  0
  6  9  1  0     0  0
  6 10  1  0     0  0
  6 19  1  0     0  0
  7  8  1  0     0  0
  7  9  2  0     0  0
  8 10  2  0     0  0
  9 20  1  0     0  0
 10 21  1  0     0  0
 11 13  2  0     0  0
 11 14  1  0     0  0
 11 17  1  0     0  0
 12 15  2  0     0  0
 12 16  1  0     0  0
 12 19  1  0     0  0
 13 15  1  0     0  0
 14 16  2  0     0  0
 18 21  1  0     0  0
 20 22  1  0     0  0
 22 23  1  0     0  0
 23 24  1  0     0  0
M  END
> <standard_type>
pIC50

> <# Confs.>
25

> <canonical_smiles>
ClC(N=C1CCCC)=C(CC(O)=O)N1CC2=CC=C(C(O)=O)C=C2

> <standard_relation>
=

> <Publication_ID>
nan

> <predicted_activity_value>
5.045757490560675

> <actual_activity_value>
4.721246399047171

> <Compound>
23

> <standard_units>
nM

> hash
3435466487111473000

$$$$
23_
XXILIB    08252103443D 0   0.00000     0.00000

 24 25  0     1  0            999 V2000
   -3.5523    0.0910   -1.4930 Cl  0  0  0  0  0  1           0  0  0
    4.7230   -5.6451   -0.0916 O   0  0  0  0  0  2           0  0  0
    0.1913    2.3803   -2.2938 O   0  0  0  0  0  2           0  0  0
    2.5318   -6.2735   -0.0913 O   0  0  0  0  0  2           0  0  0
   -0.2960    1.5224   -4.3472 O   0  0  0  0  0  2           0  0  0
    0.0000   -0.0000    0.0000 N   0  0  0  0  0  3           0  0  0
   -2.0867    0.0273    0.7629 N   0  0  0  0  0  3           0  0  0
   -2.0968    0.0470   -0.6066 C   0  0  0  0  0  4           0  0  0
   -0.8166   -0.0000    1.1146 C   0  0  0  0  0  4           0  0  0
   -0.8119    0.0298   -1.1172 C   0  0  0  0  0  4           0  0  0
    3.0022   -3.9961   -0.0380 C   0  0  0  0  0  4           0  0  0
    1.9923   -1.3965    0.0000 C   0  0  0  0  0  4           0  0  0
    3.8875   -2.9197   -0.0190 C   0  0  0  0  0  4           0  0  0
    1.6224   -3.7992   -0.0490 C   0  0  0  0  0  4           0  0  0
    3.3783   -1.6210    0.0000 C   0  0  0  0  0  4           0  0  0
    1.1213   -2.4972   -0.0296 C   0  0  0  0  0  4           0  0  0
    3.5356   -5.3686   -0.0755 C   0  0  0  0  0  4           0  0  0
   -0.1196    1.4350   -3.0050 C   0  0  0  0  0  4           0  0  0
    1.4500    0.0000   -0.0000 C   0  0  0  0  0  4           0  0  0
   -0.3325   -0.0274    2.5215 C   0  0  0  0  0  4           0  0  0
   -0.3257    0.0314   -2.5197 C   0  0  0  0  0  4           0  0  0
   -0.1163    1.3731    3.0942 C   0  0  0  0  0  4           0  0  0
   -1.3725    2.2448    3.1183 C   0  0  0  0  0  4           0  0  0
   -1.1243    3.6313    3.6935 C   0  0  0  0  0  4           0  0  0
  1  8  1  0     0  0
  2 17  2  0     0  0
  3 18  2  0     0  0
  4 17  1  0     0  0
  5 18  1  0     0  0
  6  9  1  0     0  0
  6 10  1  0     0  0
  6 19  1  0     0  0
  7  8  1  0     0  0
  7  9  2  0     0  0
  8 10  2  0     0  0
  9 20  1  0     0  0
 10 21  1  0     0  0
 11 13  2  0     0  0
 11 14  1  0     0  0
 11 17  1  0     0  0
 12 15  2  0     0  0
 12 16  1  0     0  0
 12 19  1  0     0  0
 13 15  1  0     0  0
 14 16  2  0     0  0
 18 21  1  0     0  0
 20 22  1  0     0  0
 22 23  1  0     0  0
 23 24  1  0     0  0
M  END
> <standard_type>
pIC50

> <# Confs.>
25

> <canonical_smiles>
ClC(N=C1CCCC)=C(CC(O)=O)N1CC2=CC=C(C(O)=O)C=C2

> <standard_relation>
=

> <Publication_ID>
nan

> <predicted_activity_value>
5.045757490560675

> <actual_activity_value>
4.721246399047171

> <Compound>
23

> <standard_units>
nM

> hash
3435466487111473000

$$$$
23_
XXILIB    08252103443D 0   0.00000     0.00000

 24 25  0     1  0            999 V2000
   -3.5523    0.0910   -1.4930 Cl  0  0  0  0  0  1           0  0  0
    2.8467   -6.3743   -0.0944 O   0  0  0  0  0  2           0  0  0
    0.1913    2.3803   -2.2938 O   0  0  0  0  0  2           0  0  0
    4.8872   -5.3582   -0.0840 O   0  0  0  0  0  2           0  0  0
   -0.2960    1.5224   -4.3472 O   0  0  0  0  0  2           0  0  0
    0.0000   -0.0000    0.0000 N   0  0  0  0  0  3           0  0  0
   -2.0867    0.0273    0.7629 N   0  0  0  0  0  3           0  0  0
   -2.0968    0.0470   -0.6066 C   0  0  0  0  0  4           0  0  0
   -0.8166   -0.0000    1.1146 C   0  0  0  0  0  4           0  0  0
   -0.8119    0.0298   -1.1172 C   0  0  0  0  0  4           0  0  0
    3.0022   -3.9961   -0.0380 C   0  0  0  0  0  4           0  0  0
    1.9923   -1.3965    0.0000 C   0  0  0  0  0  4           0  0  0
    3.8875   -2.9197   -0.0190 C   0  0  0  0  0  4           0  0  0
    1.6224   -3.7992   -0.0490 C   0  0  0  0  0  4           0  0  0
    3.3783   -1.6210    0.0000 C   0  0  0  0  0  4           0  0  0
    1.1213   -2.4972   -0.0296 C   0  0  0  0  0  4           0  0  0
    3.5356   -5.3686   -0.0755 C   0  0  0  0  0  4           0  0  0
   -0.1196    1.4350   -3.0050 C   0  0  0  0  0  4           0  0  0
    1.4500    0.0000   -0.0000 C   0  0  0  0  0  4           0  0  0
   -0.3325   -0.0274    2.5215 C   0  0  0  0  0  4           0  0  0
   -0.3257    0.0314   -2.5197 C   0  0  0  0  0  4           0  0  0
   -0.1163    1.3731    3.0942 C   0  0  0  0  0  4           0  0  0
    0.3819    1.3927    4.5399 C   0  0  0  0  0  4           0  0  0
    0.5870    2.8001    5.0801 C   0  0  0  0  0  4           0  0  0
  1  8  1  0     0  0
  2 17  2  0     0  0
  3 18  2  0     0  0
  4 17  1  0     0  0
  5 18  1  0     0  0
  6  9  1  0     0  0
  6 10  1  0     0  0
  6 19  1  0     0  0
  7  8  1  0     0  0
  7  9  2  0     0  0
  8 10  2  0     0  0
  9 20  1  0     0  0
 10 21  1  0     0  0
 11 13  2  0     0  0
 11 14  1  0     0  0
 11 17  1  0     0  0
 12 15  2  0     0  0
 12 16  1  0     0  0
 12 19  1  0     0  0
 13 15  1  0     0  0
 14 16  2  0     0  0
 18 21  1  0     0  0
 20 22  1  0     0  0
 22 23  1  0     0  0
 23 24  1  0     0  0
M  END
> <standard_type>
pIC50

> <# Confs.>
25

> <canonical_smiles>
ClC(N=C1CCCC)=C(CC(O)=O)N1CC2=CC=C(C(O)=O)C=C2

> <standard_relation>
=

> <Publication_ID>
nan

> <predicted_activity_value>
5.045757490560675

> <actual_activity_value>
4.721246399047171

> <Compound>
23

> <standard_units>
nM

> hash
3435466487111473000

$$$$
23_
XXILIB    08252103443D 0   0.00000     0.00000

 24 25  0     1  0            999 V2000
   -3.5523    0.0910   -1.4930 Cl  0  0  0  0  0  1           0  0  0
    2.8467   -6.3743   -0.0944 O   0  0  0  0  0  2           0  0  0
    0.1913    2.3803   -2.2938 O   0  0  0  0  0  2           0  0  0
    4.8872   -5.3582   -0.0840 O   0  0  0  0  0  2           0  0  0
   -0.2960    1.5224   -4.3472 O   0  0  0  0  0  2           0  0  0
    0.0000   -0.0000    0.0000 N   0  0  0  0  0  3           0  0  0
   -2.0867    0.0273    0.7629 N   0  0  0  0  0  3           0  0  0
   -2.0968    0.0470   -0.6066 C   0  0  0  0  0  4           0  0  0
   -0.8166   -0.0000    1.1146 C   0  0  0  0  0  4           0  0  0
   -0.8119    0.0298   -1.1172 C   0  0  0  0  0  4           0  0  0
    3.0022   -3.9961   -0.0380 C   0  0  0  0  0  4           0  0  0
    1.9923   -1.3965    0.0000 C   0  0  0  0  0  4           0  0  0
    3.8875   -2.9197   -0.0190 C   0  0  0  0  0  4           0  0  0
    1.6224   -3.7992   -0.0490 C   0  0  0  0  0  4           0  0  0
    3.3783   -1.6210    0.0000 C   0  0  0  0  0  4           0  0  0
    1.1213   -2.4972   -0.0296 C   0  0  0  0  0  4           0  0  0
    3.5356   -5.3686   -0.0755 C   0  0  0  0  0  4           0  0  0
   -0.1196    1.4350   -3.0050 C   0  0  0  0  0  4           0  0  0
    1.4500    0.0000   -0.0000 C   0  0  0  0  0  4           0  0  0
   -0.3325   -0.0274    2.5215 C   0  0  0  0  0  4           0  0  0
   -0.3257    0.0314   -2.5197 C   0  0  0  0  0  4           0  0  0
   -0.1163    1.3731    3.0942 C   0  0  0  0  0  4           0  0  0
   -1.3725    2.2448    3.1183 C   0  0  0  0  0  4           0  0  0
   -1.1243    3.6313    3.6935 C   0  0  0  0  0  4           0  0  0
  1  8  1  0     0  0
  2 17  2  0     0  0
  3 18  2  0     0  0
  4 17  1  0     0  0
  5 18  1  0     0  0
  6  9  1  0     0  0
  6 10  1  0     0  0
  6 19  1  0     0  0
  7  8  1  0     0  0
  7  9  2  0     0  0
  8 10  2  0     0  0
  9 20  1  0     0  0
 10 21  1  0     0  0
 11 13  2  0     0  0
 11 14  1  0     0  0
 11 17  1  0     0  0
 12 15  2  0     0  0
 12 16  1  0     0  0
 12 19  1  0     0  0
 13 15  1  0     0  0
 14 16  2  0     0  0
 18 21  1  0     0  0
 20 22  1  0     0  0
 22 23  1  0     0  0
 23 24  1  0     0  0
M  END
> <standard_type>
pIC50

> <# Confs.>
25

> <canonical_smiles>
ClC(N=C1CCCC)=C(CC(O)=O)N1CC2=CC=C(C(O)=O)C=C2

> <standard_relation>
=

> <Publication_ID>
nan

> <predicted_activity_value>
5.045757490560675

> <actual_activity_value>
4.721246399047171

> <Compound>
23

> <standard_units>
nM

> hash
3435466487111473000

$$$$
23_
XXILIB    08252103443D 0   0.00000     0.00000

 24 25  0     1  0            999 V2000
   -3.5523    0.0910   -1.4930 Cl  0  0  0  0  0  1           0  0  0
    4.7230    5.6451    0.0916 O   0  0  0  0  0  2           0  0  0
    0.0792   -2.3432   -2.3382 O   0  0  0  0  0  2           0  0  0
    2.5318    6.2735    0.0913 O   0  0  0  0  0  2           0  0  0
   -0.4193   -1.4331   -4.3663 O   0  0  0  0  0  2           0  0  0
    0.0000   -0.0000    0.0000 N   0  0  0  0  0  3           0  0  0
   -2.0867    0.0273    0.7629 N   0  0  0  0  0  3           0  0  0
   -2.0968    0.0470   -0.6066 C   0  0  0  0  0  4           0  0  0
   -0.8166   -0.0000    1.1146 C   0  0  0  0  0  4           0  0  0
   -0.8119    0.0298   -1.1172 C   0  0  0  0  0  4           0  0  0
    3.0022    3.9961    0.0380 C   0  0  0  0  0  4           0  0  0
    1.9923    1.3965    0.0000 C   0  0  0  0  0  4           0  0  0
    3.8875    2.9197    0.0190 C   0  0  0  0  0  4           0  0  0
    1.6224    3.7992    0.0490 C   0  0  0  0  0  4           0  0  0
    3.3783    1.6210   -0.0000 C   0  0  0  0  0  4           0  0  0
    1.1213    2.4972    0.0296 C   0  0  0  0  0  4           0  0  0
    3.5356    5.3686    0.0755 C   0  0  0  0  0  4           0  0  0
   -0.1862   -1.3710   -3.0314 C   0  0  0  0  0  4           0  0  0
    1.4500   -0.0000    0.0000 C   0  0  0  0  0  4           0  0  0
   -0.3325   -0.0274    2.5215 C   0  0  0  0  0  4           0  0  0
   -0.3257    0.0314   -2.5197 C   0  0  0  0  0  4           0  0  0
   -0.1674   -1.4496    3.0567 C   0  0  0  0  0  4           0  0  0
    0.3291   -1.5255    4.5012 C   0  0  0  0  0  4           0  0  0
    0.4828   -2.9532    5.0037 C   0  0  0  0  0  4           0  0  0
  1  8  1  0     0  0
  2 17  2  0     0  0
  3 18  2  0     0  0
  4 17  1  0     0  0
  5 18  1  0     0  0
  6  9  1  0     0  0
  6 10  1  0     0  0
  6 19  1  0     0  0
  7  8  1  0     0  0
  7  9  2  0     0  0
  8 10  2  0     0  0
  9 20  1  0     0  0
 10 21  1  0     0  0
 11 13  2  0     0  0
 11 14  1  0     0  0
 11 17  1  0     0  0
 12 15  2  0     0  0
 12 16  1  0     0  0
 12 19  1  0     0  0
 13 15  1  0     0  0
 14 16  2  0     0  0
 18 21  1  0     0  0
 20 22  1  0     0  0
 22 23  1  0     0  0
 23 24  1  0     0  0
M  END
> <standard_type>
pIC50

> <# Confs.>
25

> <canonical_smiles>
ClC(N=C1CCCC)=C(CC(O)=O)N1CC2=CC=C(C(O)=O)C=C2

> <standard_relation>
=

> <Publication_ID>
nan

> <predicted_activity_value>
5.045757490560675

> <actual_activity_value>
4.721246399047171

> <Compound>
23

> <standard_units>
nM

> hash
3435466487111473000

$$$$
23_
XXILIB    08252103443D 0   0.00000     0.00000

 24 25  0     1  0            999 V2000
   -3.5523    0.0910   -1.4930 Cl  0  0  0  0  0  1           0  0  0
    4.7230   -5.6451   -0.0916 O   0  0  0  0  0  2           0  0  0
    0.1913    2.3803   -2.2938 O   0  0  0  0  0  2           0  0  0
    2.5318   -6.2735   -0.0913 O   0  0  0  0  0  2           0  0  0
   -0.2960    1.5224   -4.3472 O   0  0  0  0  0  2           0  0  0
    0.0000   -0.0000    0.0000 N   0  0  0  0  0  3           0  0  0
   -2.0867    0.0273    0.7629 N   0  0  0  0  0  3           0  0  0
   -2.0968    0.0470   -0.6066 C   0  0  0  0  0  4           0  0  0
   -0.8166   -0.0000    1.1146 C   0  0  0  0  0  4           0  0  0
   -0.8119    0.0298   -1.1172 C   0  0  0  0  0  4           0  0  0
    3.0022   -3.9961   -0.0380 C   0  0  0  0  0  4           0  0  0
    1.9923   -1.3965    0.0000 C   0  0  0  0  0  4           0  0  0
    3.8875   -2.9197   -0.0190 C   0  0  0  0  0  4           0  0  0
    1.6224   -3.7992   -0.0490 C   0  0  0  0  0  4           0  0  0
    3.3783   -1.6210    0.0000 C   0  0  0  0  0  4           0  0  0
    1.1213   -2.4972   -0.0296 C   0  0  0  0  0  4           0  0  0
    3.5356   -5.3686   -0.0755 C   0  0  0  0  0  4           0  0  0
   -0.1196    1.4350   -3.0050 C   0  0  0  0  0  4           0  0  0
    1.4500    0.0000   -0.0000 C   0  0  0  0  0  4           0  0  0
   -0.3325   -0.0274    2.5215 C   0  0  0  0  0  4           0  0  0
   -0.3257    0.0314   -2.5197 C   0  0  0  0  0  4           0  0  0
   -1.1036   -1.0234    3.3872 C   0  0  0  0  0  4           0  0  0
   -1.0216   -2.4726    2.9056 C   0  0  0  0  0  4           0  0  0
   -1.7988   -3.4382    3.7878 C   0  0  0  0  0  4           0  0  0
  1  8  1  0     0  0
  2 17  2  0     0  0
  3 18  2  0     0  0
  4 17  1  0     0  0
  5 18  1  0     0  0
  6  9  1  0     0  0
  6 10  1  0     0  0
  6 19  1  0     0  0
  7  8  1  0     0  0
  7  9  2  0     0  0
  8 10  2  0     0  0
  9 20  1  0     0  0
 10 21  1  0     0  0
 11 13  2  0     0  0
 11 14  1  0     0  0
 11 17  1  0     0  0
 12 15  2  0     0  0
 12 16  1  0     0  0
 12 19  1  0     0  0
 13 15  1  0     0  0
 14 16  2  0     0  0
 18 21  1  0     0  0
 20 22  1  0     0  0
 22 23  1  0     0  0
 23 24  1  0     0  0
M  END
> <standard_type>
pIC50

> <# Confs.>
25

> <canonical_smiles>
ClC(N=C1CCCC)=C(CC(O)=O)N1CC2=CC=C(C(O)=O)C=C2

> <standard_relation>
=

> <Publication_ID>
nan

> <predicted_activity_value>
5.045757490560675

> <actual_activity_value>
4.721246399047171

> <Compound>
23

> <standard_units>
nM

> hash
3435466487111473000

$$$$
23_
XXILIB    08252103443D 0   0.00000     0.00000

 24 25  0     1  0            999 V2000
   -3.5523    0.0910   -1.4930 Cl  0  0  0  0  0  1           0  0  0
    2.8467    6.3743    0.0944 O   0  0  0  0  0  2           0  0  0
    0.5424   -2.2228   -2.5418 O   0  0  0  0  0  2           0  0  0
    4.8872    5.3582    0.0840 O   0  0  0  0  0  2           0  0  0
   -0.9956   -1.5883   -4.0981 O   0  0  0  0  0  2           0  0  0
    0.0000   -0.0000    0.0000 N   0  0  0  0  0  3           0  0  0
   -2.0867    0.0273    0.7629 N   0  0  0  0  0  3           0  0  0
   -2.0968    0.0470   -0.6066 C   0  0  0  0  0  4           0  0  0
   -0.8166   -0.0000    1.1146 C   0  0  0  0  0  4           0  0  0
   -0.8119    0.0298   -1.1172 C   0  0  0  0  0  4           0  0  0
    3.0022    3.9961    0.0380 C   0  0  0  0  0  4           0  0  0
    1.9923    1.3965    0.0000 C   0  0  0  0  0  4           0  0  0
    3.8875    2.9197    0.0190 C   0  0  0  0  0  4           0  0  0
    1.6224    3.7992    0.0490 C   0  0  0  0  0  4           0  0  0
    3.3783    1.6210   -0.0000 C   0  0  0  0  0  4           0  0  0
    1.1213    2.4972    0.0296 C   0  0  0  0  0  4           0  0  0
    3.5356    5.3686    0.0755 C   0  0  0  0  0  4           0  0  0
   -0.1862   -1.3710   -3.0314 C   0  0  0  0  0  4           0  0  0
    1.4500   -0.0000    0.0000 C   0  0  0  0  0  4           0  0  0
   -0.3325   -0.0274    2.5215 C   0  0  0  0  0  4           0  0  0
   -0.3257    0.0314   -2.5197 C   0  0  0  0  0  4           0  0  0
   -0.1674   -1.4496    3.0567 C   0  0  0  0  0  4           0  0  0
    0.3291   -1.5255    4.5012 C   0  0  0  0  0  4           0  0  0
    0.4828   -2.9532    5.0037 C   0  0  0  0  0  4           0  0  0
  1  8  1  0     0  0
  2 17  2  0     0  0
  3 18  2  0     0  0
  4 17  1  0     0  0
  5 18  1  0     0  0
  6  9  1  0     0  0
  6 10  1  0     0  0
  6 19  1  0     0  0
  7  8  1  0     0  0
  7  9  2  0     0  0
  8 10  2  0     0  0
  9 20  1  0     0  0
 10 21  1  0     0  0
 11 13  2  0     0  0
 11 14  1  0     0  0
 11 17  1  0     0  0
 12 15  2  0     0  0
 12 16  1  0     0  0
 12 19  1  0     0  0
 13 15  1  0     0  0
 14 16  2  0     0  0
 18 21  1  0     0  0
 20 22  1  0     0  0
 22 23  1  0     0  0
 23 24  1  0     0  0
M  END
> <standard_type>
pIC50

> <# Confs.>
25

> <canonical_smiles>
ClC(N=C1CCCC)=C(CC(O)=O)N1CC2=CC=C(C(O)=O)C=C2

> <standard_relation>
=

> <Publication_ID>
nan

> <predicted_activity_value>
5.045757490560675

> <actual_activity_value>
4.721246399047171

> <Compound>
23

> <standard_units>
nM

> hash
3435466487111473000

$$$$
23_
XXILIB    08252103443D 0   0.00000     0.00000

 24 25  0     1  0            999 V2000
   -3.5523    0.0910   -1.4930 Cl  0  0  0  0  0  1           0  0  0
    4.7230   -5.6451   -0.0916 O   0  0  0  0  0  2           0  0  0
    0.1913    2.3803   -2.2938 O   0  0  0  0  0  2           0  0  0
    2.5318   -6.2735   -0.0913 O   0  0  0  0  0  2           0  0  0
   -0.2960    1.5224   -4.3472 O   0  0  0  0  0  2           0  0  0
    0.0000   -0.0000    0.0000 N   0  0  0  0  0  3           0  0  0
   -2.0867    0.0273    0.7629 N   0  0  0  0  0  3           0  0  0
   -2.0968    0.0470   -0.6066 C   0  0  0  0  0  4           0  0  0
   -0.8166   -0.0000    1.1146 C   0  0  0  0  0  4           0  0  0
   -0.8119    0.0298   -1.1172 C   0  0  0  0  0  4           0  0  0
    3.0022   -3.9961   -0.0380 C   0  0  0  0  0  4           0  0  0
    1.9923   -1.3965    0.0000 C   0  0  0  0  0  4           0  0  0
    3.8875   -2.9197   -0.0190 C   0  0  0  0  0  4           0  0  0
    1.6224   -3.7992   -0.0490 C   0  0  0  0  0  4           0  0  0
    3.3783   -1.6210    0.0000 C   0  0  0  0  0  4           0  0  0
    1.1213   -2.4972   -0.0296 C   0  0  0  0  0  4           0  0  0
    3.5356   -5.3686   -0.0755 C   0  0  0  0  0  4           0  0  0
   -0.1196    1.4350   -3.0050 C   0  0  0  0  0  4           0  0  0
    1.4500    0.0000   -0.0000 C   0  0  0  0  0  4           0  0  0
   -0.3325   -0.0274    2.5215 C   0  0  0  0  0  4           0  0  0
   -0.3257    0.0314   -2.5197 C   0  0  0  0  0  4           0  0  0
   -1.4765   -0.0202    3.5351 C   0  0  0  0  0  4           0  0  0
   -1.0243   -0.0477    4.9957 C   0  0  0  0  0  4           0  0  0
   -2.1854   -0.0397    5.9788 C   0  0  0  0  0  4           0  0  0
  1  8  1  0     0  0
  2 17  2  0     0  0
  3 18  2  0     0  0
  4 17  1  0     0  0
  5 18  1  0     0  0
  6  9  1  0     0  0
  6 10  1  0     0  0
  6 19  1  0     0  0
  7  8  1  0     0  0
  7  9  2  0     0  0
  8 10  2  0     0  0
  9 20  1  0     0  0
 10 21  1  0     0  0
 11 13  2  0     0  0
 11 14  1  0     0  0
 11 17  1  0     0  0
 12 15  2  0     0  0
 12 16  1  0     0  0
 12 19  1  0     0  0
 13 15  1  0     0  0
 14 16  2  0     0  0
 18 21  1  0     0  0
 20 22  1  0     0  0
 22 23  1  0     0  0
 23 24  1  0     0  0
M  END
> <standard_type>
pIC50

> <# Confs.>
25

> <canonical_smiles>
ClC(N=C1CCCC)=C(CC(O)=O)N1CC2=CC=C(C(O)=O)C=C2

> <standard_relation>
=

> <Publication_ID>
nan

> <predicted_activity_value>
5.045757490560675

> <actual_activity_value>
4.721246399047171

> <Compound>
23

> <standard_units>
nM

> hash
3435466487111473000

$$$$
23_
XXILIB    08252103443D 0   0.00000     0.00000

 24 25  0     1  0            999 V2000
   -3.5523    0.0910   -1.4930 Cl  0  0  0  0  0  1           0  0  0
    4.7230    5.6451    0.0916 O   0  0  0  0  0  2           0  0  0
    0.0792   -2.3432   -2.3382 O   0  0  0  0  0  2           0  0  0
    2.5318    6.2735    0.0913 O   0  0  0  0  0  2           0  0  0
   -0.4193   -1.4331   -4.3663 O   0  0  0  0  0  2           0  0  0
    0.0000   -0.0000    0.0000 N   0  0  0  0  0  3           0  0  0
   -2.0867    0.0273    0.7629 N   0  0  0  0  0  3           0  0  0
   -2.0968    0.0470   -0.6066 C   0  0  0  0  0  4           0  0  0
   -0.8166   -0.0000    1.1146 C   0  0  0  0  0  4           0  0  0
   -0.8119    0.0298   -1.1172 C   0  0  0  0  0  4           0  0  0
    3.0022    3.9961    0.0380 C   0  0  0  0  0  4           0  0  0
    1.9923    1.3965    0.0000 C   0  0  0  0  0  4           0  0  0
    3.8875    2.9197    0.0190 C   0  0  0  0  0  4           0  0  0
    1.6224    3.7992    0.0490 C   0  0  0  0  0  4           0  0  0
    3.3783    1.6210   -0.0000 C   0  0  0  0  0  4           0  0  0
    1.1213    2.4972    0.0296 C   0  0  0  0  0  4           0  0  0
    3.5356    5.3686    0.0755 C   0  0  0  0  0  4           0  0  0
   -0.1862   -1.3710   -3.0314 C   0  0  0  0  0  4           0  0  0
    1.4500   -0.0000    0.0000 C   0  0  0  0  0  4           0  0  0
   -0.3325   -0.0274    2.5215 C   0  0  0  0  0  4           0  0  0
   -0.3257    0.0314   -2.5197 C   0  0  0  0  0  4           0  0  0
   -0.1674   -1.4496    3.0567 C   0  0  0  0  0  4           0  0  0
   -1.4544   -2.2756    3.0584 C   0  0  0  0  0  4           0  0  0
   -1.2568   -3.6849    3.5964 C   0  0  0  0  0  4           0  0  0
  1  8  1  0     0  0
  2 17  2  0     0  0
  3 18  2  0     0  0
  4 17  1  0     0  0
  5 18  1  0     0  0
  6  9  1  0     0  0
  6 10  1  0     0  0
  6 19  1  0     0  0
  7  8  1  0     0  0
  7  9  2  0     0  0
  8 10  2  0     0  0
  9 20  1  0     0  0
 10 21  1  0     0  0
 11 13  2  0     0  0
 11 14  1  0     0  0
 11 17  1  0     0  0
 12 15  2  0     0  0
 12 16  1  0     0  0
 12 19  1  0     0  0
 13 15  1  0     0  0
 14 16  2  0     0  0
 18 21  1  0     0  0
 20 22  1  0     0  0
 22 23  1  0     0  0
 23 24  1  0     0  0
M  END
> <standard_type>
pIC50

> <# Confs.>
25

> <canonical_smiles>
ClC(N=C1CCCC)=C(CC(O)=O)N1CC2=CC=C(C(O)=O)C=C2

> <standard_relation>
=

> <Publication_ID>
nan

> <predicted_activity_value>
5.045757490560675

> <actual_activity_value>
4.721246399047171

> <Compound>
23

> <standard_units>
nM

> hash
3435466487111473000

$$$$
23_
XXILIB    08252103443D 0   0.00000     0.00000

 24 25  0     1  0            999 V2000
   -3.5523    0.0910   -1.4930 Cl  0  0  0  0  0  1           0  0  0
    2.8467   -6.3743   -0.0944 O   0  0  0  0  0  2           0  0  0
    0.1913    2.3803   -2.2938 O   0  0  0  0  0  2           0  0  0
    4.8872   -5.3582   -0.0840 O   0  0  0  0  0  2           0  0  0
   -0.2960    1.5224   -4.3472 O   0  0  0  0  0  2           0  0  0
    0.0000   -0.0000    0.0000 N   0  0  0  0  0  3           0  0  0
   -2.0867    0.0273    0.7629 N   0  0  0  0  0  3           0  0  0
   -2.0968    0.0470   -0.6066 C   0  0  0  0  0  4           0  0  0
   -0.8166   -0.0000    1.1146 C   0  0  0  0  0  4           0  0  0
   -0.8119    0.0298   -1.1172 C   0  0  0  0  0  4           0  0  0
    3.0022   -3.9961   -0.0380 C   0  0  0  0  0  4           0  0  0
    1.9923   -1.3965    0.0000 C   0  0  0  0  0  4           0  0  0
    3.8875   -2.9197   -0.0190 C   0  0  0  0  0  4           0  0  0
    1.6224   -3.7992   -0.0490 C   0  0  0  0  0  4           0  0  0
    3.3783   -1.6210    0.0000 C   0  0  0  0  0  4           0  0  0
    1.1213   -2.4972   -0.0296 C   0  0  0  0  0  4           0  0  0
    3.5356   -5.3686   -0.0755 C   0  0  0  0  0  4           0  0  0
   -0.1196    1.4350   -3.0050 C   0  0  0  0  0  4           0  0  0
    1.4500    0.0000   -0.0000 C   0  0  0  0  0  4           0  0  0
   -0.3325   -0.0274    2.5215 C   0  0  0  0  0  4           0  0  0
   -0.3257    0.0314   -2.5197 C   0  0  0  0  0  4           0  0  0
   -1.1036   -1.0234    3.3872 C   0  0  0  0  0  4           0  0  0
   -1.0216   -2.4726    2.9056 C   0  0  0  0  0  4           0  0  0
   -1.7988   -3.4382    3.7878 C   0  0  0  0  0  4           0  0  0
  1  8  1  0     0  0
  2 17  2  0     0  0
  3 18  2  0     0  0
  4 17  1  0     0  0
  5 18  1  0     0  0
  6  9  1  0     0  0
  6 10  1  0     0  0
  6 19  1  0     0  0
  7  8  1  0     0  0
  7  9  2  0     0  0
  8 10  2  0     0  0
  9 20  1  0     0  0
 10 21  1  0     0  0
 11 13  2  0     0  0
 11 14  1  0     0  0
 11 17  1  0     0  0
 12 15  2  0     0  0
 12 16  1  0     0  0
 12 19  1  0     0  0
 13 15  1  0     0  0
 14 16  2  0     0  0
 18 21  1  0     0  0
 20 22  1  0     0  0
 22 23  1  0     0  0
 23 24  1  0     0  0
M  END
> <standard_type>
pIC50

> <# Confs.>
25

> <canonical_smiles>
ClC(N=C1CCCC)=C(CC(O)=O)N1CC2=CC=C(C(O)=O)C=C2

> <standard_relation>
=

> <Publication_ID>
nan

> <predicted_activity_value>
5.045757490560675

> <actual_activity_value>
4.721246399047171

> <Compound>
23

> <standard_units>
nM

> hash
3435466487111473000

$$$$
23_
XXILIB    08252103443D 0   0.00000     0.00000

 24 25  0     1  0            999 V2000
   -3.5523    0.0910   -1.4930 Cl  0  0  0  0  0  1           0  0  0
    2.8467   -6.3743   -0.0944 O   0  0  0  0  0  2           0  0  0
    0.1913    2.3803   -2.2938 O   0  0  0  0  0  2           0  0  0
    4.8872   -5.3582   -0.0840 O   0  0  0  0  0  2           0  0  0
   -0.2960    1.5224   -4.3472 O   0  0  0  0  0  2           0  0  0
    0.0000   -0.0000    0.0000 N   0  0  0  0  0  3           0  0  0
   -2.0867    0.0273    0.7629 N   0  0  0  0  0  3           0  0  0
   -2.0968    0.0470   -0.6066 C   0  0  0  0  0  4           0  0  0
   -0.8166   -0.0000    1.1146 C   0  0  0  0  0  4           0  0  0
   -0.8119    0.0298   -1.1172 C   0  0  0  0  0  4           0  0  0
    3.0022   -3.9961   -0.0380 C   0  0  0  0  0  4           0  0  0
    1.9923   -1.3965    0.0000 C   0  0  0  0  0  4           0  0  0
    3.8875   -2.9197   -0.0190 C   0  0  0  0  0  4           0  0  0
    1.6224   -3.7992   -0.0490 C   0  0  0  0  0  4           0  0  0
    3.3783   -1.6210    0.0000 C   0  0  0  0  0  4           0  0  0
    1.1213   -2.4972   -0.0296 C   0  0  0  0  0  4           0  0  0
    3.5356   -5.3686   -0.0755 C   0  0  0  0  0  4           0  0  0
   -0.1196    1.4350   -3.0050 C   0  0  0  0  0  4           0  0  0
    1.4500    0.0000   -0.0000 C   0  0  0  0  0  4           0  0  0
   -0.3325   -0.0274    2.5215 C   0  0  0  0  0  4           0  0  0
   -0.3257    0.0314   -2.5197 C   0  0  0  0  0  4           0  0  0
   -1.4765   -0.0202    3.5351 C   0  0  0  0  0  4           0  0  0
   -1.0243   -0.0477    4.9957 C   0  0  0  0  0  4           0  0  0
   -2.1854   -0.0397    5.9788 C   0  0  0  0  0  4           0  0  0
  1  8  1  0     0  0
  2 17  2  0     0  0
  3 18  2  0     0  0
  4 17  1  0     0  0
  5 18  1  0     0  0
  6  9  1  0     0  0
  6 10  1  0     0  0
  6 19  1  0     0  0
  7  8  1  0     0  0
  7  9  2  0     0  0
  8 10  2  0     0  0
  9 20  1  0     0  0
 10 21  1  0     0  0
 11 13  2  0     0  0
 11 14  1  0     0  0
 11 17  1  0     0  0
 12 15  2  0     0  0
 12 16  1  0     0  0
 12 19  1  0     0  0
 13 15  1  0     0  0
 14 16  2  0     0  0
 18 21  1  0     0  0
 20 22  1  0     0  0
 22 23  1  0     0  0
 23 24  1  0     0  0
M  END
> <standard_type>
pIC50

> <# Confs.>
25

> <canonical_smiles>
ClC(N=C1CCCC)=C(CC(O)=O)N1CC2=CC=C(C(O)=O)C=C2

> <standard_relation>
=

> <Publication_ID>
nan

> <predicted_activity_value>
5.045757490560675

> <actual_activity_value>
4.721246399047171

> <Compound>
23

> <standard_units>
nM

> hash
3435466487111473000

$$$$
23_
XXILIB    08252103443D 0   0.00000     0.00000

 24 25  0     1  0            999 V2000
   -3.5523    0.0910   -1.4930 Cl  0  0  0  0  0  1           0  0  0
    2.8467    6.3743    0.0944 O   0  0  0  0  0  2           0  0  0
    0.5424   -2.2228   -2.5418 O   0  0  0  0  0  2           0  0  0
    4.8872    5.3582    0.0840 O   0  0  0  0  0  2           0  0  0
   -0.9956   -1.5883   -4.0981 O   0  0  0  0  0  2           0  0  0
    0.0000   -0.0000    0.0000 N   0  0  0  0  0  3           0  0  0
   -2.0867    0.0273    0.7629 N   0  0  0  0  0  3           0  0  0
   -2.0968    0.0470   -0.6066 C   0  0  0  0  0  4           0  0  0
   -0.8166   -0.0000    1.1146 C   0  0  0  0  0  4           0  0  0
   -0.8119    0.0298   -1.1172 C   0  0  0  0  0  4           0  0  0
    3.0022    3.9961    0.0380 C   0  0  0  0  0  4           0  0  0
    1.9923    1.3965    0.0000 C   0  0  0  0  0  4           0  0  0
    3.8875    2.9197    0.0190 C   0  0  0  0  0  4           0  0  0
    1.6224    3.7992    0.0490 C   0  0  0  0  0  4           0  0  0
    3.3783    1.6210   -0.0000 C   0  0  0  0  0  4           0  0  0
    1.1213    2.4972    0.0296 C   0  0  0  0  0  4           0  0  0
    3.5356    5.3686    0.0755 C   0  0  0  0  0  4           0  0  0
   -0.1862   -1.3710   -3.0314 C   0  0  0  0  0  4           0  0  0
    1.4500   -0.0000    0.0000 C   0  0  0  0  0  4           0  0  0
   -0.3325   -0.0274    2.5215 C   0  0  0  0  0  4           0  0  0
   -0.3257    0.0314   -2.5197 C   0  0  0  0  0  4           0  0  0
   -0.1674   -1.4496    3.0567 C   0  0  0  0  0  4           0  0  0
   -1.4544   -2.2756    3.0584 C   0  0  0  0  0  4           0  0  0
   -1.2568   -3.6849    3.5964 C   0  0  0  0  0  4           0  0  0
  1  8  1  0     0  0
  2 17  2  0     0  0
  3 18  2  0     0  0
  4 17  1  0     0  0
  5 18  1  0     0  0
  6  9  1  0     0  0
  6 10  1  0     0  0
  6 19  1  0     0  0
  7  8  1  0     0  0
  7  9  2  0     0  0
  8 10  2  0     0  0
  9 20  1  0     0  0
 10 21  1  0     0  0
 11 13  2  0     0  0
 11 14  1  0     0  0
 11 17  1  0     0  0
 12 15  2  0     0  0
 12 16  1  0     0  0
 12 19  1  0     0  0
 13 15  1  0     0  0
 14 16  2  0     0  0
 18 21  1  0     0  0
 20 22  1  0     0  0
 22 23  1  0     0  0
 23 24  1  0     0  0
M  END
> <standard_type>
pIC50

> <# Confs.>
25

> <canonical_smiles>
ClC(N=C1CCCC)=C(CC(O)=O)N1CC2=CC=C(C(O)=O)C=C2

> <standard_relation>
=

> <Publication_ID>
nan

> <predicted_activity_value>
5.045757490560675

> <actual_activity_value>
4.721246399047171

> <Compound>
23

> <standard_units>
nM

> hash
3435466487111473000

$$$$
23_
XXILIB    08252103443D 0   0.00000     0.00000

 24 25  0     1  0            999 V2000
   -3.5523    0.0910   -1.4930 Cl  0  0  0  0  0  1           0  0  0
    4.7230    5.6451    0.0916 O   0  0  0  0  0  2           0  0  0
    0.0792   -2.3432   -2.3382 O   0  0  0  0  0  2           0  0  0
    2.5318    6.2735    0.0913 O   0  0  0  0  0  2           0  0  0
   -0.4193   -1.4331   -4.3663 O   0  0  0  0  0  2           0  0  0
    0.0000   -0.0000    0.0000 N   0  0  0  0  0  3           0  0  0
   -2.0867    0.0273    0.7629 N   0  0  0  0  0  3           0  0  0
   -2.0968    0.0470   -0.6066 C   0  0  0  0  0  4           0  0  0
   -0.8166   -0.0000    1.1146 C   0  0  0  0  0  4           0  0  0
   -0.8119    0.0298   -1.1172 C   0  0  0  0  0  4           0  0  0
    3.0022    3.9961    0.0380 C   0  0  0  0  0  4           0  0  0
    1.9923    1.3965    0.0000 C   0  0  0  0  0  4           0  0  0
    3.8875    2.9197    0.0190 C   0  0  0  0  0  4           0  0  0
    1.6224    3.7992    0.0490 C   0  0  0  0  0  4           0  0  0
    3.3783    1.6210   -0.0000 C   0  0  0  0  0  4           0  0  0
    1.1213    2.4972    0.0296 C   0  0  0  0  0  4           0  0  0
    3.5356    5.3686    0.0755 C   0  0  0  0  0  4           0  0  0
   -0.1862   -1.3710   -3.0314 C   0  0  0  0  0  4           0  0  0
    1.4500   -0.0000    0.0000 C   0  0  0  0  0  4           0  0  0
   -0.3325   -0.0274    2.5215 C   0  0  0  0  0  4           0  0  0
   -0.3257    0.0314   -2.5197 C   0  0  0  0  0  4           0  0  0
   -1.4765   -0.0202    3.5351 C   0  0  0  0  0  4           0  0  0
   -1.0243   -0.0477    4.9957 C   0  0  0  0  0  4           0  0  0
   -2.1854   -0.0397    5.9788 C   0  0  0  0  0  4           0  0  0
  1  8  1  0     0  0
  2 17  2  0     0  0
  3 18  2  0     0  0
  4 17  1  0     0  0
  5 18  1  0     0  0
  6  9  1  0     0  0
  6 10  1  0     0  0
  6 19  1  0     0  0
  7  8  1  0     0  0
  7  9  2  0     0  0
  8 10  2  0     0  0
  9 20  1  0     0  0
 10 21  1  0     0  0
 11 13  2  0     0  0
 11 14  1  0     0  0
 11 17  1  0     0  0
 12 15  2  0     0  0
 12 16  1  0     0  0
 12 19  1  0     0  0
 13 15  1  0     0  0
 14 16  2  0     0  0
 18 21  1  0     0  0
 20 22  1  0     0  0
 22 23  1  0     0  0
 23 24  1  0     0  0
M  END
> <standard_type>
pIC50

> <# Confs.>
25

> <canonical_smiles>
ClC(N=C1CCCC)=C(CC(O)=O)N1CC2=CC=C(C(O)=O)C=C2

> <standard_relation>
=

> <Publication_ID>
nan

> <predicted_activity_value>
5.045757490560675

> <actual_activity_value>
4.721246399047171

> <Compound>
23

> <standard_units>
nM

> hash
3435466487111473000

$$$$
23_
XXILIB    08252103443D 0   0.00000     0.00000

 24 25  0     1  0            999 V2000
   -3.5523    0.0910   -1.4930 Cl  0  0  0  0  0  1           0  0  0
    2.8467    6.3743    0.0944 O   0  0  0  0  0  2           0  0  0
    0.5424   -2.2228   -2.5418 O   0  0  0  0  0  2           0  0  0
    4.8872    5.3582    0.0840 O   0  0  0  0  0  2           0  0  0
   -0.9956   -1.5883   -4.0981 O   0  0  0  0  0  2           0  0  0
    0.0000   -0.0000    0.0000 N   0  0  0  0  0  3           0  0  0
   -2.0867    0.0273    0.7629 N   0  0  0  0  0  3           0  0  0
   -2.0968    0.0470   -0.6066 C   0  0  0  0  0  4           0  0  0
   -0.8166   -0.0000    1.1146 C   0  0  0  0  0  4           0  0  0
   -0.8119    0.0298   -1.1172 C   0  0  0  0  0  4           0  0  0
    3.0022    3.9961    0.0380 C   0  0  0  0  0  4           0  0  0
    1.9923    1.3965    0.0000 C   0  0  0  0  0  4           0  0  0
    3.8875    2.9197    0.0190 C   0  0  0  0  0  4           0  0  0
    1.6224    3.7992    0.0490 C   0  0  0  0  0  4           0  0  0
    3.3783    1.6210   -0.0000 C   0  0  0  0  0  4           0  0  0
    1.1213    2.4972    0.0296 C   0  0  0  0  0  4           0  0  0
    3.5356    5.3686    0.0755 C   0  0  0  0  0  4           0  0  0
   -0.1862   -1.3710   -3.0314 C   0  0  0  0  0  4           0  0  0
    1.4500   -0.0000    0.0000 C   0  0  0  0  0  4           0  0  0
   -0.3325   -0.0274    2.5215 C   0  0  0  0  0  4           0  0  0
   -0.3257    0.0314   -2.5197 C   0  0  0  0  0  4           0  0  0
   -1.4765   -0.0202    3.5351 C   0  0  0  0  0  4           0  0  0
   -1.0243   -0.0477    4.9957 C   0  0  0  0  0  4           0  0  0
   -2.1854   -0.0397    5.9788 C   0  0  0  0  0  4           0  0  0
  1  8  1  0     0  0
  2 17  2  0     0  0
  3 18  2  0     0  0
  4 17  1  0     0  0
  5 18  1  0     0  0
  6  9  1  0     0  0
  6 10  1  0     0  0
  6 19  1  0     0  0
  7  8  1  0     0  0
  7  9  2  0     0  0
  8 10  2  0     0  0
  9 20  1  0     0  0
 10 21  1  0     0  0
 11 13  2  0     0  0
 11 14  1  0     0  0
 11 17  1  0     0  0
 12 15  2  0     0  0
 12 16  1  0     0  0
 12 19  1  0     0  0
 13 15  1  0     0  0
 14 16  2  0     0  0
 18 21  1  0     0  0
 20 22  1  0     0  0
 22 23  1  0     0  0
 23 24  1  0     0  0
M  END
> <standard_type>
pIC50

> <# Confs.>
25

> <canonical_smiles>
ClC(N=C1CCCC)=C(CC(O)=O)N1CC2=CC=C(C(O)=O)C=C2

> <standard_relation>
=

> <Publication_ID>
nan

> <predicted_activity_value>
5.045757490560675

> <actual_activity_value>
4.721246399047171

> <Compound>
23

> <standard_units>
nM

> hash
3435466487111473000

$$$$
23_
XXILIB    08252103443D 0   0.00000     0.00000

 24 25  0     1  0            999 V2000
   -3.5523    0.0910   -1.4930 Cl  0  0  0  0  0  1           0  0  0
    4.7230    5.6451    0.0916 O   0  0  0  0  0  2           0  0  0
    0.0792   -2.3432   -2.3382 O   0  0  0  0  0  2           0  0  0
    2.5318    6.2735    0.0913 O   0  0  0  0  0  2           0  0  0
   -0.4193   -1.4331   -4.3663 O   0  0  0  0  0  2           0  0  0
    0.0000   -0.0000    0.0000 N   0  0  0  0  0  3           0  0  0
   -2.0867    0.0273    0.7629 N   0  0  0  0  0  3           0  0  0
   -2.0968    0.0470   -0.6066 C   0  0  0  0  0  4           0  0  0
   -0.8166   -0.0000    1.1146 C   0  0  0  0  0  4           0  0  0
   -0.8119    0.0298   -1.1172 C   0  0  0  0  0  4           0  0  0
    3.0022    3.9961    0.0380 C   0  0  0  0  0  4           0  0  0
    1.9923    1.3965    0.0000 C   0  0  0  0  0  4           0  0  0
    3.8875    2.9197    0.0190 C   0  0  0  0  0  4           0  0  0
    1.6224    3.7992    0.0490 C   0  0  0  0  0  4           0  0  0
    3.3783    1.6210   -0.0000 C   0  0  0  0  0  4           0  0  0
    1.1213    2.4972    0.0296 C   0  0  0  0  0  4           0  0  0
    3.5356    5.3686    0.0755 C   0  0  0  0  0  4           0  0  0
   -0.1862   -1.3710   -3.0314 C   0  0  0  0  0  4           0  0  0
    1.4500   -0.0000    0.0000 C   0  0  0  0  0  4           0  0  0
   -0.3325   -0.0274    2.5215 C   0  0  0  0  0  4           0  0  0
   -0.3257    0.0314   -2.5197 C   0  0  0  0  0  4           0  0  0
   -1.0675    0.9725    3.4137 C   0  0  0  0  0  4           0  0  0
   -0.9328    2.4300    2.9706 C   0  0  0  0  0  4           0  0  0
   -1.6750    3.3994    3.8785 C   0  0  0  0  0  4           0  0  0
  1  8  1  0     0  0
  2 17  2  0     0  0
  3 18  2  0     0  0
  4 17  1  0     0  0
  5 18  1  0     0  0
  6  9  1  0     0  0
  6 10  1  0     0  0
  6 19  1  0     0  0
  7  8  1  0     0  0
  7  9  2  0     0  0
  8 10  2  0     0  0
  9 20  1  0     0  0
 10 21  1  0     0  0
 11 13  2  0     0  0
 11 14  1  0     0  0
 11 17  1  0     0  0
 12 15  2  0     0  0
 12 16  1  0     0  0
 12 19  1  0     0  0
 13 15  1  0     0  0
 14 16  2  0     0  0
 18 21  1  0     0  0
 20 22  1  0     0  0
 22 23  1  0     0  0
 23 24  1  0     0  0
M  END
> <standard_type>
pIC50

> <# Confs.>
25

> <canonical_smiles>
ClC(N=C1CCCC)=C(CC(O)=O)N1CC2=CC=C(C(O)=O)C=C2

> <standard_relation>
=

> <Publication_ID>
nan

> <predicted_activity_value>
5.045757490560675

> <actual_activity_value>
4.721246399047171

> <Compound>
23

> <standard_units>
nM

> hash
3435466487111473000

$$$$
23_
XXILIB    08252103443D 0   0.00000     0.00000

 24 25  0     1  0            999 V2000
   -3.5523    0.0910   -1.4930 Cl  0  0  0  0  0  1           0  0  0
    4.7230   -5.6451   -0.0916 O   0  0  0  0  0  2           0  0  0
    0.1913    2.3803   -2.2938 O   0  0  0  0  0  2           0  0  0
    2.5318   -6.2735   -0.0913 O   0  0  0  0  0  2           0  0  0
   -0.2960    1.5224   -4.3472 O   0  0  0  0  0  2           0  0  0
    0.0000   -0.0000    0.0000 N   0  0  0  0  0  3           0  0  0
   -2.0867    0.0273    0.7629 N   0  0  0  0  0  3           0  0  0
   -2.0968    0.0470   -0.6066 C   0  0  0  0  0  4           0  0  0
   -0.8166   -0.0000    1.1146 C   0  0  0  0  0  4           0  0  0
   -0.8119    0.0298   -1.1172 C   0  0  0  0  0  4           0  0  0
    3.0022   -3.9961   -0.0380 C   0  0  0  0  0  4           0  0  0
    1.9923   -1.3965    0.0000 C   0  0  0  0  0  4           0  0  0
    3.8875   -2.9197   -0.0190 C   0  0  0  0  0  4           0  0  0
    1.6224   -3.7992   -0.0490 C   0  0  0  0  0  4           0  0  0
    3.3783   -1.6210    0.0000 C   0  0  0  0  0  4           0  0  0
    1.1213   -2.4972   -0.0296 C   0  0  0  0  0  4           0  0  0
    3.5356   -5.3686   -0.0755 C   0  0  0  0  0  4           0  0  0
   -0.1196    1.4350   -3.0050 C   0  0  0  0  0  4           0  0  0
    1.4500    0.0000   -0.0000 C   0  0  0  0  0  4           0  0  0
   -0.3325   -0.0274    2.5215 C   0  0  0  0  0  4           0  0  0
   -0.3257    0.0314   -2.5197 C   0  0  0  0  0  4           0  0  0
   -1.1036   -1.0234    3.3872 C   0  0  0  0  0  4           0  0  0
   -0.6388   -1.0849    4.8429 C   0  0  0  0  0  4           0  0  0
    0.8210   -1.4891    4.9853 C   0  0  0  0  0  4           0  0  0
  1  8  1  0     0  0
  2 17  2  0     0  0
  3 18  2  0     0  0
  4 17  1  0     0  0
  5 18  1  0     0  0
  6  9  1  0     0  0
  6 10  1  0     0  0
  6 19  1  0     0  0
  7  8  1  0     0  0
  7  9  2  0     0  0
  8 10  2  0     0  0
  9 20  1  0     0  0
 10 21  1  0     0  0
 11 13  2  0     0  0
 11 14  1  0     0  0
 11 17  1  0     0  0
 12 15  2  0     0  0
 12 16  1  0     0  0
 12 19  1  0     0  0
 13 15  1  0     0  0
 14 16  2  0     0  0
 18 21  1  0     0  0
 20 22  1  0     0  0
 22 23  1  0     0  0
 23 24  1  0     0  0
M  END
> <standard_type>
pIC50

> <# Confs.>
25

> <canonical_smiles>
ClC(N=C1CCCC)=C(CC(O)=O)N1CC2=CC=C(C(O)=O)C=C2

> <standard_relation>
=

> <Publication_ID>
nan

> <predicted_activity_value>
5.045757490560675

> <actual_activity_value>
4.721246399047171

> <Compound>
23

> <standard_units>
nM

> hash
3435466487111473000

$$$$
23_
XXILIB    08252103443D 0   0.00000     0.00000

 24 25  0     1  0            999 V2000
   -3.5523    0.0910   -1.4930 Cl  0  0  0  0  0  1           0  0  0
    4.5934   -5.6817   -0.5949 O   0  0  0  0  0  2           0  0  0
    0.6484    2.2419   -2.4999 O   0  0  0  0  0  2           0  0  0
    2.6937   -6.2278    0.5407 O   0  0  0  0  0  2           0  0  0
   -0.8774    1.6932   -4.1001 O   0  0  0  0  0  2           0  0  0
    0.0000   -0.0000    0.0000 N   0  0  0  0  0  3           0  0  0
   -2.0867    0.0273    0.7629 N   0  0  0  0  0  3           0  0  0
   -2.0968    0.0470   -0.6066 C   0  0  0  0  0  4           0  0  0
   -0.8166   -0.0000    1.1146 C   0  0  0  0  0  4           0  0  0
   -0.8119    0.0298   -1.1172 C   0  0  0  0  0  4           0  0  0
    3.0022   -3.9961   -0.0380 C   0  0  0  0  0  4           0  0  0
    1.9923   -1.3965    0.0000 C   0  0  0  0  0  4           0  0  0
    3.8875   -2.9197   -0.0190 C   0  0  0  0  0  4           0  0  0
    1.6224   -3.7992   -0.0490 C   0  0  0  0  0  4           0  0  0
    3.3783   -1.6210    0.0000 C   0  0  0  0  0  4           0  0  0
    1.1213   -2.4972   -0.0296 C   0  0  0  0  0  4           0  0  0
    3.5356   -5.3686   -0.0755 C   0  0  0  0  0  4           0  0  0
   -0.1196    1.4350   -3.0050 C   0  0  0  0  0  4           0  0  0
    1.4500    0.0000   -0.0000 C   0  0  0  0  0  4           0  0  0
   -0.3325   -0.0274    2.5215 C   0  0  0  0  0  4           0  0  0
   -0.3257    0.0314   -2.5197 C   0  0  0  0  0  4           0  0  0
   -1.1036   -1.0234    3.3872 C   0  0  0  0  0  4           0  0  0
   -0.6388   -1.0849    4.8429 C   0  0  0  0  0  4           0  0  0
   -1.4255   -2.0846    5.6774 C   0  0  0  0  0  4           0  0  0
  1  8  1  0     0  0
  2 17  2  0     0  0
  3 18  2  0     0  0
  4 17  1  0     0  0
  5 18  1  0     0  0
  6  9  1  0     0  0
  6 10  1  0     0  0
  6 19  1  0     0  0
  7  8  1  0     0  0
  7  9  2  0     0  0
  8 10  2  0     0  0
  9 20  1  0     0  0
 10 21  1  0     0  0
 11 13  2  0     0  0
 11 14  1  0     0  0
 11 17  1  0     0  0
 12 15  2  0     0  0
 12 16  1  0     0  0
 12 19  1  0     0  0
 13 15  1  0     0  0
 14 16  2  0     0  0
 18 21  1  0     0  0
 20 22  1  0     0  0
 22 23  1  0     0  0
 23 24  1  0     0  0
M  END
> <standard_type>
pIC50

> <# Confs.>
25

> <canonical_smiles>
ClC(N=C1CCCC)=C(CC(O)=O)N1CC2=CC=C(C(O)=O)C=C2

> <standard_relation>
=

> <Publication_ID>
nan

> <predicted_activity_value>
5.045757490560675

> <actual_activity_value>
4.721246399047171

> <Compound>
23

> <standard_units>
nM

> hash
3435466487111473000

$$$$
23_
XXILIB    08252103443D 0   0.00000     0.00000

 24 25  0     1  0            999 V2000
   -3.5523    0.0910   -1.4930 Cl  0  0  0  0  0  1           0  0  0
    4.5083    5.7285   -0.6477 O   0  0  0  0  0  2           0  0  0
    0.5424   -2.2228   -2.5418 O   0  0  0  0  0  2           0  0  0
    2.9367    6.1163    0.9573 O   0  0  0  0  0  2           0  0  0
   -0.9956   -1.5883   -4.0981 O   0  0  0  0  0  2           0  0  0
    0.0000   -0.0000    0.0000 N   0  0  0  0  0  3           0  0  0
   -2.0867    0.0273    0.7629 N   0  0  0  0  0  3           0  0  0
   -2.0968    0.0470   -0.6066 C   0  0  0  0  0  4           0  0  0
   -0.8166   -0.0000    1.1146 C   0  0  0  0  0  4           0  0  0
   -0.8119    0.0298   -1.1172 C   0  0  0  0  0  4           0  0  0
    3.0272    3.9864    0.0266 C   0  0  0  0  0  4           0  0  0
    1.9923    1.3965    0.0000 C   0  0  0  0  0  4           0  0  0
    3.5682    3.0437   -0.8460 C   0  0  0  0  0  4           0  0  0
    1.9863    3.6579    0.8934 C   0  0  0  0  0  4           0  0  0
    3.0477    1.7494   -0.8561 C   0  0  0  0  0  4           0  0  0
    1.4713    2.3613    0.8768 C   0  0  0  0  0  4           0  0  0
    3.5852    5.3493    0.0528 C   0  0  0  0  0  4           0  0  0
   -0.1862   -1.3710   -3.0314 C   0  0  0  0  0  4           0  0  0
    1.4500    0.0000    0.0000 C   0  0  0  0  0  4           0  0  0
   -0.3325   -0.0274    2.5215 C   0  0  0  0  0  4           0  0  0
   -0.3257    0.0314   -2.5197 C   0  0  0  0  0  4           0  0  0
   -1.1036   -1.0234    3.3872 C   0  0  0  0  0  4           0  0  0
   -1.0216   -2.4726    2.9056 C   0  0  0  0  0  4           0  0  0
   -1.7988   -3.4382    3.7878 C   0  0  0  0  0  4           0  0  0
  1  8  1  0     0  0
  2 17  2  0     0  0
  3 18  2  0     0  0
  4 17  1  0     0  0
  5 18  1  0     0  0
  6  9  1  0     0  0
  6 10  1  0     0  0
  6 19  1  0     0  0
  7  8  1  0     0  0
  7  9  2  0     0  0
  8 10  2  0     0  0
  9 20  1  0     0  0
 10 21  1  0     0  0
 11 13  2  0     0  0
 11 14  1  0     0  0
 11 17  1  0     0  0
 12 15  2  0     0  0
 12 16  1  0     0  0
 12 19  1  0     0  0
 13 15  1  0     0  0
 14 16  2  0     0  0
 18 21  1  0     0  0
 20 22  1  0     0  0
 22 23  1  0     0  0
 23 24  1  0     0  0
M  END
> <standard_type>
pIC50

> <# Confs.>
25

> <canonical_smiles>
ClC(N=C1CCCC)=C(CC(O)=O)N1CC2=CC=C(C(O)=O)C=C2

> <standard_relation>
=

> <Publication_ID>
nan

> <predicted_activity_value>
5.045757490560675

> <actual_activity_value>
4.721246399047171

> <Compound>
23

> <standard_units>
nM

> hash
3435466487111473000

$$$$
23_
XXILIB    08252103443D 0   0.00000     0.00000

 24 25  0     1  0            999 V2000
   -3.5523    0.0910   -1.4930 Cl  0  0  0  0  0  1           0  0  0
    4.6013    5.7061   -0.4114 O   0  0  0  0  0  2           0  0  0
    0.5424   -2.2228   -2.5418 O   0  0  0  0  0  2           0  0  0
    2.6854    6.1966    0.7224 O   0  0  0  0  0  2           0  0  0
   -0.9956   -1.5883   -4.0981 O   0  0  0  0  0  2           0  0  0
    0.0000   -0.0000    0.0000 N   0  0  0  0  0  3           0  0  0
   -2.0867    0.0273    0.7629 N   0  0  0  0  0  3           0  0  0
   -2.0968    0.0470   -0.6066 C   0  0  0  0  0  4           0  0  0
   -0.8166   -0.0000    1.1146 C   0  0  0  0  0  4           0  0  0
   -0.8119    0.0298   -1.1172 C   0  0  0  0  0  4           0  0  0
    3.0022    3.9961    0.0380 C   0  0  0  0  0  4           0  0  0
    1.9923    1.3965    0.0000 C   0  0  0  0  0  4           0  0  0
    3.8875    2.9197    0.0190 C   0  0  0  0  0  4           0  0  0
    1.6224    3.7992    0.0490 C   0  0  0  0  0  4           0  0  0
    3.3783    1.6210   -0.0000 C   0  0  0  0  0  4           0  0  0
    1.1213    2.4972    0.0296 C   0  0  0  0  0  4           0  0  0
    3.5356    5.3686    0.0755 C   0  0  0  0  0  4           0  0  0
   -0.1862   -1.3710   -3.0314 C   0  0  0  0  0  4           0  0  0
    1.4500   -0.0000    0.0000 C   0  0  0  0  0  4           0  0  0
   -0.3325   -0.0274    2.5215 C   0  0  0  0  0  4           0  0  0
   -0.3257    0.0314   -2.5197 C   0  0  0  0  0  4           0  0  0
   -0.1674   -1.4496    3.0567 C   0  0  0  0  0  4           0  0  0
    0.3291   -1.5255    4.5012 C   0  0  0  0  0  4           0  0  0
    1.6885   -0.8715    4.6988 C   0  0  0  0  0  4           0  0  0
  1  8  1  0     0  0
  2 17  2  0     0  0
  3 18  2  0     0  0
  4 17  1  0     0  0
  5 18  1  0     0  0
  6  9  1  0     0  0
  6 10  1  0     0  0
  6 19  1  0     0  0
  7  8  1  0     0  0
  7  9  2  0     0  0
  8 10  2  0     0  0
  9 20  1  0     0  0
 10 21  1  0     0  0
 11 13  2  0     0  0
 11 14  1  0     0  0
 11 17  1  0     0  0
 12 15  2  0     0  0
 12 16  1  0     0  0
 12 19  1  0     0  0
 13 15  1  0     0  0
 14 16  2  0     0  0
 18 21  1  0     0  0
 20 22  1  0     0  0
 22 23  1  0     0  0
 23 24  1  0     0  0
M  END
> <standard_type>
pIC50

> <# Confs.>
25

> <canonical_smiles>
ClC(N=C1CCCC)=C(CC(O)=O)N1CC2=CC=C(C(O)=O)C=C2

> <standard_relation>
=

> <Publication_ID>
nan

> <predicted_activity_value>
5.045757490560675

> <actual_activity_value>
4.721246399047171

> <Compound>
23

> <standard_units>
nM

> hash
3435466487111473000

$$$$
23_
XXILIB    08252103443D 0   0.00000     0.00000

 24 25  0     1  0            999 V2000
   -3.5523    0.0910   -1.4930 Cl  0  0  0  0  0  1           0  0  0
    2.8467    6.3743    0.0944 O   0  0  0  0  0  2           0  0  0
    0.0792   -2.3432   -2.3382 O   0  0  0  0  0  2           0  0  0
    4.8872    5.3582    0.0840 O   0  0  0  0  0  2           0  0  0
   -0.4193   -1.4331   -4.3663 O   0  0  0  0  0  2           0  0  0
    0.0000   -0.0000    0.0000 N   0  0  0  0  0  3           0  0  0
   -2.0867    0.0273    0.7629 N   0  0  0  0  0  3           0  0  0
   -2.0968    0.0470   -0.6066 C   0  0  0  0  0  4           0  0  0
   -0.8166   -0.0000    1.1146 C   0  0  0  0  0  4           0  0  0
   -0.8119    0.0298   -1.1172 C   0  0  0  0  0  4           0  0  0
    3.0022    3.9961    0.0380 C   0  0  0  0  0  4           0  0  0
    1.9923    1.3965    0.0000 C   0  0  0  0  0  4           0  0  0
    3.8875    2.9197    0.0190 C   0  0  0  0  0  4           0  0  0
    1.6224    3.7992    0.0490 C   0  0  0  0  0  4           0  0  0
    3.3783    1.6210   -0.0000 C   0  0  0  0  0  4           0  0  0
    1.1213    2.4972    0.0296 C   0  0  0  0  0  4           0  0  0
    3.5356    5.3686    0.0755 C   0  0  0  0  0  4           0  0  0
   -0.1862   -1.3710   -3.0314 C   0  0  0  0  0  4           0  0  0
    1.4500   -0.0000    0.0000 C   0  0  0  0  0  4           0  0  0
   -0.3325   -0.0274    2.5215 C   0  0  0  0  0  4           0  0  0
   -0.3257    0.0314   -2.5197 C   0  0  0  0  0  4           0  0  0
   -1.0675    0.9725    3.4137 C   0  0  0  0  0  4           0  0  0
   -0.9328    2.4300    2.9706 C   0  0  0  0  0  4           0  0  0
   -1.6750    3.3994    3.8785 C   0  0  0  0  0  4           0  0  0
  1  8  1  0     0  0
  2 17  2  0     0  0
  3 18  2  0     0  0
  4 17  1  0     0  0
  5 18  1  0     0  0
  6  9  1  0     0  0
  6 10  1  0     0  0
  6 19  1  0     0  0
  7  8  1  0     0  0
  7  9  2  0     0  0
  8 10  2  0     0  0
  9 20  1  0     0  0
 10 21  1  0     0  0
 11 13  2  0     0  0
 11 14  1  0     0  0
 11 17  1  0     0  0
 12 15  2  0     0  0
 12 16  1  0     0  0
 12 19  1  0     0  0
 13 15  1  0     0  0
 14 16  2  0     0  0
 18 21  1  0     0  0
 20 22  1  0     0  0
 22 23  1  0     0  0
 23 24  1  0     0  0
M  END
> <standard_type>
pIC50

> <# Confs.>
25

> <canonical_smiles>
ClC(N=C1CCCC)=C(CC(O)=O)N1CC2=CC=C(C(O)=O)C=C2

> <standard_relation>
=

> <Publication_ID>
nan

> <predicted_activity_value>
5.045757490560675

> <actual_activity_value>
4.721246399047171

> <Compound>
23

> <standard_units>
nM

> hash
3435466487111473000

$$$$
23_
XXILIB    08252103443D 0   0.00000     0.00000

 24 25  0     1  0            999 V2000
   -3.5523    0.0910   -1.4930 Cl  0  0  0  0  0  1           0  0  0
    2.8467   -6.3743   -0.0944 O   0  0  0  0  0  2           0  0  0
    0.1913    2.3803   -2.2938 O   0  0  0  0  0  2           0  0  0
    4.8872   -5.3582   -0.0840 O   0  0  0  0  0  2           0  0  0
   -0.2960    1.5224   -4.3472 O   0  0  0  0  0  2           0  0  0
    0.0000   -0.0000    0.0000 N   0  0  0  0  0  3           0  0  0
   -2.0867    0.0273    0.7629 N   0  0  0  0  0  3           0  0  0
   -2.0968    0.0470   -0.6066 C   0  0  0  0  0  4           0  0  0
   -0.8166   -0.0000    1.1146 C   0  0  0  0  0  4           0  0  0
   -0.8119    0.0298   -1.1172 C   0  0  0  0  0  4           0  0  0
    3.0022   -3.9961   -0.0380 C   0  0  0  0  0  4           0  0  0
    1.9923   -1.3965    0.0000 C   0  0  0  0  0  4           0  0  0
    3.8875   -2.9197   -0.0190 C   0  0  0  0  0  4           0  0  0
    1.6224   -3.7992   -0.0490 C   0  0  0  0  0  4           0  0  0
    3.3783   -1.6210    0.0000 C   0  0  0  0  0  4           0  0  0
    1.1213   -2.4972   -0.0296 C   0  0  0  0  0  4           0  0  0
    3.5356   -5.3686   -0.0755 C   0  0  0  0  0  4           0  0  0
   -0.1196    1.4350   -3.0050 C   0  0  0  0  0  4           0  0  0
    1.4500    0.0000   -0.0000 C   0  0  0  0  0  4           0  0  0
   -0.3325   -0.0274    2.5215 C   0  0  0  0  0  4           0  0  0
   -0.3257    0.0314   -2.5197 C   0  0  0  0  0  4           0  0  0
   -1.1036   -1.0234    3.3872 C   0  0  0  0  0  4           0  0  0
   -0.6388   -1.0849    4.8429 C   0  0  0  0  0  4           0  0  0
    0.8210   -1.4891    4.9853 C   0  0  0  0  0  4           0  0  0
  1  8  1  0     0  0
  2 17  2  0     0  0
  3 18  2  0     0  0
  4 17  1  0     0  0
  5 18  1  0     0  0
  6  9  1  0     0  0
  6 10  1  0     0  0
  6 19  1  0     0  0
  7  8  1  0     0  0
  7  9  2  0     0  0
  8 10  2  0     0  0
  9 20  1  0     0  0
 10 21  1  0     0  0
 11 13  2  0     0  0
 11 14  1  0     0  0
 11 17  1  0     0  0
 12 15  2  0     0  0
 12 16  1  0     0  0
 12 19  1  0     0  0
 13 15  1  0     0  0
 14 16  2  0     0  0
 18 21  1  0     0  0
 20 22  1  0     0  0
 22 23  1  0     0  0
 23 24  1  0     0  0
M  END
> <standard_type>
pIC50

> <# Confs.>
25

> <canonical_smiles>
ClC(N=C1CCCC)=C(CC(O)=O)N1CC2=CC=C(C(O)=O)C=C2

> <standard_relation>
=

> <Publication_ID>
nan

> <predicted_activity_value>
5.045757490560675

> <actual_activity_value>
4.721246399047171

> <Compound>
23

> <standard_units>
nM

> hash
3435466487111473000

$$$$
23_
XXILIB    08252103443D 0   0.00000     0.00000

 24 25  0     1  0            999 V2000
   -3.5523    0.0910   -1.4930 Cl  0  0  0  0  0  1           0  0  0
    2.9684   -6.3133   -0.5973 O   0  0  0  0  0  2           0  0  0
    0.6484    2.2419   -2.4999 O   0  0  0  0  0  2           0  0  0
    4.7336   -5.4351    0.5470 O   0  0  0  0  0  2           0  0  0
   -0.8774    1.6932   -4.1001 O   0  0  0  0  0  2           0  0  0
    0.0000   -0.0000    0.0000 N   0  0  0  0  0  3           0  0  0
   -2.0867    0.0273    0.7629 N   0  0  0  0  0  3           0  0  0
   -2.0968    0.0470   -0.6066 C   0  0  0  0  0  4           0  0  0
   -0.8166   -0.0000    1.1146 C   0  0  0  0  0  4           0  0  0
   -0.8119    0.0298   -1.1172 C   0  0  0  0  0  4           0  0  0
    3.0022   -3.9961   -0.0380 C   0  0  0  0  0  4           0  0  0
    1.9923   -1.3965    0.0000 C   0  0  0  0  0  4           0  0  0
    3.8875   -2.9197   -0.0190 C   0  0  0  0  0  4           0  0  0
    1.6224   -3.7992   -0.0490 C   0  0  0  0  0  4           0  0  0
    3.3783   -1.6210    0.0000 C   0  0  0  0  0  4           0  0  0
    1.1213   -2.4972   -0.0296 C   0  0  0  0  0  4           0  0  0
    3.5356   -5.3686   -0.0755 C   0  0  0  0  0  4           0  0  0
   -0.1196    1.4350   -3.0050 C   0  0  0  0  0  4           0  0  0
    1.4500    0.0000   -0.0000 C   0  0  0  0  0  4           0  0  0
   -0.3325   -0.0274    2.5215 C   0  0  0  0  0  4           0  0  0
   -0.3257    0.0314   -2.5197 C   0  0  0  0  0  4           0  0  0
   -1.1036   -1.0234    3.3872 C   0  0  0  0  0  4           0  0  0
   -0.6388   -1.0849    4.8429 C   0  0  0  0  0  4           0  0  0
   -1.4255   -2.0846    5.6774 C   0  0  0  0  0  4           0  0  0
  1  8  1  0     0  0
  2 17  2  0     0  0
  3 18  2  0     0  0
  4 17  1  0     0  0
  5 18  1  0     0  0
  6  9  1  0     0  0
  6 10  1  0     0  0
  6 19  1  0     0  0
  7  8  1  0     0  0
  7  9  2  0     0  0
  8 10  2  0     0  0
  9 20  1  0     0  0
 10 21  1  0     0  0
 11 13  2  0     0  0
 11 14  1  0     0  0
 11 17  1  0     0  0
 12 15  2  0     0  0
 12 16  1  0     0  0
 12 19  1  0     0  0
 13 15  1  0     0  0
 14 16  2  0     0  0
 18 21  1  0     0  0
 20 22  1  0     0  0
 22 23  1  0     0  0
 23 24  1  0     0  0
M  END
> <standard_type>
pIC50

> <# Confs.>
25

> <canonical_smiles>
ClC(N=C1CCCC)=C(CC(O)=O)N1CC2=CC=C(C(O)=O)C=C2

> <standard_relation>
=

> <Publication_ID>
nan

> <predicted_activity_value>
5.045757490560675

> <actual_activity_value>
4.721246399047171

> <Compound>
23

> <standard_units>
nM

> hash
3435466487111473000

$$$$
23_
XXILIB    08252103443D 0   0.00000     0.00000

 24 25  0     1  0            999 V2000
   -3.5523    0.0910   -1.4930 Cl  0  0  0  0  0  1           0  0  0
    4.6013    5.7061   -0.4114 O   0  0  0  0  0  2           0  0  0
    0.5424   -2.2228   -2.5418 O   0  0  0  0  0  2           0  0  0
    2.6854    6.1966    0.7224 O   0  0  0  0  0  2           0  0  0
   -0.9956   -1.5883   -4.0981 O   0  0  0  0  0  2           0  0  0
    0.0000   -0.0000    0.0000 N   0  0  0  0  0  3           0  0  0
   -2.0867    0.0273    0.7629 N   0  0  0  0  0  3           0  0  0
   -2.0968    0.0470   -0.6066 C   0  0  0  0  0  4           0  0  0
   -0.8166   -0.0000    1.1146 C   0  0  0  0  0  4           0  0  0
   -0.8119    0.0298   -1.1172 C   0  0  0  0  0  4           0  0  0
    3.0022    3.9961    0.0380 C   0  0  0  0  0  4           0  0  0
    1.9923    1.3965    0.0000 C   0  0  0  0  0  4           0  0  0
    3.8875    2.9197    0.0190 C   0  0  0  0  0  4           0  0  0
    1.6224    3.7992    0.0490 C   0  0  0  0  0  4           0  0  0
    3.3783    1.6210   -0.0000 C   0  0  0  0  0  4           0  0  0
    1.1213    2.4972    0.0296 C   0  0  0  0  0  4           0  0  0
    3.5356    5.3686    0.0755 C   0  0  0  0  0  4           0  0  0
   -0.1862   -1.3710   -3.0314 C   0  0  0  0  0  4           0  0  0
    1.4500   -0.0000    0.0000 C   0  0  0  0  0  4           0  0  0
   -0.3325   -0.0274    2.5215 C   0  0  0  0  0  4           0  0  0
   -0.3257    0.0314   -2.5197 C   0  0  0  0  0  4           0  0  0
   -0.1674   -1.4496    3.0567 C   0  0  0  0  0  4           0  0  0
   -1.4544   -2.2756    3.0584 C   0  0  0  0  0  4           0  0  0
   -2.5552   -1.6610    3.9099 C   0  0  0  0  0  4           0  0  0
  1  8  1  0     0  0
  2 17  2  0     0  0
  3 18  2  0     0  0
  4 17  1  0     0  0
  5 18  1  0     0  0
  6  9  1  0     0  0
  6 10  1  0     0  0
  6 19  1  0     0  0
  7  8  1  0     0  0
  7  9  2  0     0  0
  8 10  2  0     0  0
  9 20  1  0     0  0
 10 21  1  0     0  0
 11 13  2  0     0  0
 11 14  1  0     0  0
 11 17  1  0     0  0
 12 15  2  0     0  0
 12 16  1  0     0  0
 12 19  1  0     0  0
 13 15  1  0     0  0
 14 16  2  0     0  0
 18 21  1  0     0  0
 20 22  1  0     0  0
 22 23  1  0     0  0
 23 24  1  0     0  0
M  END
> <standard_type>
pIC50

> <# Confs.>
25

> <canonical_smiles>
ClC(N=C1CCCC)=C(CC(O)=O)N1CC2=CC=C(C(O)=O)C=C2

> <standard_relation>
=

> <Publication_ID>
nan

> <predicted_activity_value>
5.045757490560675

> <actual_activity_value>
4.721246399047171

> <Compound>
23

> <standard_units>
nM

> hash
3435466487111473000

$$$$
23_
XXILIB    08252103443D 0   0.00000     0.00000

 24 25  0     1  0            999 V2000
   -3.5523    0.0910   -1.4930 Cl  0  0  0  0  0  1           0  0  0
    2.9684    6.3133    0.5973 O   0  0  0  0  0  2           0  0  0
    0.0792   -2.3432   -2.3382 O   0  0  0  0  0  2           0  0  0
    4.7336    5.4351   -0.5470 O   0  0  0  0  0  2           0  0  0
   -0.4193   -1.4331   -4.3663 O   0  0  0  0  0  2           0  0  0
    0.0000   -0.0000    0.0000 N   0  0  0  0  0  3           0  0  0
   -2.0867    0.0273    0.7629 N   0  0  0  0  0  3           0  0  0
   -2.0968    0.0470   -0.6066 C   0  0  0  0  0  4           0  0  0
   -0.8166   -0.0000    1.1146 C   0  0  0  0  0  4           0  0  0
   -0.8119    0.0298   -1.1172 C   0  0  0  0  0  4           0  0  0
    3.0022    3.9961    0.0380 C   0  0  0  0  0  4           0  0  0
    1.9923    1.3965    0.0000 C   0  0  0  0  0  4           0  0  0
    3.8875    2.9197    0.0190 C   0  0  0  0  0  4           0  0  0
    1.6224    3.7992    0.0490 C   0  0  0  0  0  4           0  0  0
    3.3783    1.6210   -0.0000 C   0  0  0  0  0  4           0  0  0
    1.1213    2.4972    0.0296 C   0  0  0  0  0  4           0  0  0
    3.5356    5.3686    0.0755 C   0  0  0  0  0  4           0  0  0
   -0.1862   -1.3710   -3.0314 C   0  0  0  0  0  4           0  0  0
    1.4500   -0.0000    0.0000 C   0  0  0  0  0  4           0  0  0
   -0.3325   -0.0274    2.5215 C   0  0  0  0  0  4           0  0  0
   -0.3257    0.0314   -2.5197 C   0  0  0  0  0  4           0  0  0
   -0.1674   -1.4496    3.0567 C   0  0  0  0  0  4           0  0  0
    0.3291   -1.5255    4.5012 C   0  0  0  0  0  4           0  0  0
    1.6885   -0.8715    4.6988 C   0  0  0  0  0  4           0  0  0
  1  8  1  0     0  0
  2 17  2  0     0  0
  3 18  2  0     0  0
  4 17  1  0     0  0
  5 18  1  0     0  0
  6  9  1  0     0  0
  6 10  1  0     0  0
  6 19  1  0     0  0
  7  8  1  0     0  0
  7  9  2  0     0  0
  8 10  2  0     0  0
  9 20  1  0     0  0
 10 21  1  0     0  0
 11 13  2  0     0  0
 11 14  1  0     0  0
 11 17  1  0     0  0
 12 15  2  0     0  0
 12 16  1  0     0  0
 12 19  1  0     0  0
 13 15  1  0     0  0
 14 16  2  0     0  0
 18 21  1  0     0  0
 20 22  1  0     0  0
 22 23  1  0     0  0
 23 24  1  0     0  0
M  END
> <standard_type>
pIC50

> <# Confs.>
25

> <canonical_smiles>
ClC(N=C1CCCC)=C(CC(O)=O)N1CC2=CC=C(C(O)=O)C=C2

> <standard_relation>
=

> <Publication_ID>
nan

> <predicted_activity_value>
5.045757490560675

> <actual_activity_value>
4.721246399047171

> <Compound>
23

> <standard_units>
nM

> hash
3435466487111473000

$$$$
23_
XXILIB    08252103443D 0   0.00000     0.00000

 24 25  0     1  0            999 V2000
   -3.5523    0.0910   -1.4930 Cl  0  0  0  0  0  1           0  0  0
    3.1834    6.2435    0.7777 O   0  0  0  0  0  2           0  0  0
    0.5424   -2.2228   -2.5418 O   0  0  0  0  0  2           0  0  0
    4.5974    5.4707   -0.8347 O   0  0  0  0  0  2           0  0  0
   -0.9956   -1.5883   -4.0981 O   0  0  0  0  0  2           0  0  0
    0.0000   -0.0000    0.0000 N   0  0  0  0  0  3           0  0  0
   -2.0867    0.0273    0.7629 N   0  0  0  0  0  3           0  0  0
   -2.0968    0.0470   -0.6066 C   0  0  0  0  0  4           0  0  0
   -0.8166   -0.0000    1.1146 C   0  0  0  0  0  4           0  0  0
   -0.8119    0.0298   -1.1172 C   0  0  0  0  0  4           0  0  0
    3.0272    3.9864    0.0266 C   0  0  0  0  0  4           0  0  0
    1.9923    1.3965    0.0000 C   0  0  0  0  0  4           0  0  0
    3.5682    3.0437   -0.8460 C   0  0  0  0  0  4           0  0  0
    1.9863    3.6579    0.8934 C   0  0  0  0  0  4           0  0  0
    3.0477    1.7494   -0.8561 C   0  0  0  0  0  4           0  0  0
    1.4713    2.3613    0.8768 C   0  0  0  0  0  4           0  0  0
    3.5852    5.3493    0.0528 C   0  0  0  0  0  4           0  0  0
   -0.1862   -1.3710   -3.0314 C   0  0  0  0  0  4           0  0  0
    1.4500    0.0000    0.0000 C   0  0  0  0  0  4           0  0  0
   -0.3325   -0.0274    2.5215 C   0  0  0  0  0  4           0  0  0
   -0.3257    0.0314   -2.5197 C   0  0  0  0  0  4           0  0  0
   -1.1036   -1.0234    3.3872 C   0  0  0  0  0  4           0  0  0
   -1.0216   -2.4726    2.9056 C   0  0  0  0  0  4           0  0  0
   -1.7988   -3.4382    3.7878 C   0  0  0  0  0  4           0  0  0
  1  8  1  0     0  0
  2 17  2  0     0  0
  3 18  2  0     0  0
  4 17  1  0     0  0
  5 18  1  0     0  0
  6  9  1  0     0  0
  6 10  1  0     0  0
  6 19  1  0     0  0
  7  8  1  0     0  0
  7  9  2  0     0  0
  8 10  2  0     0  0
  9 20  1  0     0  0
 10 21  1  0     0  0
 11 13  2  0     0  0
 11 14  1  0     0  0
 11 17  1  0     0  0
 12 15  2  0     0  0
 12 16  1  0     0  0
 12 19  1  0     0  0
 13 15  1  0     0  0
 14 16  2  0     0  0
 18 21  1  0     0  0
 20 22  1  0     0  0
 22 23  1  0     0  0
 23 24  1  0     0  0
M  END
> <standard_type>
pIC50

> <# Confs.>
25

> <canonical_smiles>
ClC(N=C1CCCC)=C(CC(O)=O)N1CC2=CC=C(C(O)=O)C=C2

> <standard_relation>
=

> <Publication_ID>
nan

> <predicted_activity_value>
5.045757490560675

> <actual_activity_value>
4.721246399047171

> <Compound>
23

> <standard_units>
nM

> hash
3435466487111473000

$$$$
13_
XXILIB    08252103443D 0   0.00000     0.00000

 39 43  0     1  0            999 V2000
    5.0189   -1.1657    0.9033 Cl  0  0  0  0  0  1           0  0  0
    0.5408   -4.8560   -0.0705 S   0  0  1  0  0  6           0  0  0
   -0.8156   -4.4081    0.1793 O   0  0  0  0  0  2           0  0  0
    0.9021   -5.4589   -1.3394 O   0  0  0  0  0  2           0  0  0
    0.7198    2.1786   -1.9296 O   0  0  0  0  0  2           0  0  0
    2.9470    2.3949   -2.3152 O   0  0  0  0  0  2           0  0  0
    0.4356   -3.5786    5.4487 N   0  0  0  0  0  3           0  0  0
    1.2069   -2.9625    6.3340 N   0  0  0  0  0  3           0  0  0
   -0.6827   -2.8434    5.3907 N   0  0  0  0  0  3           0  0  0
    0.5859   -1.8426    6.8367 N   0  0  0  0  0  3           0  0  0
    1.4528    0.0000   -0.0000 N   0  0  0  0  0  3           0  0  0
    3.5308    0.4814   -0.5951 N   0  0  0  0  0  3           0  0  0
    1.6224   -3.5924    0.3045 N   0  0  0  0  0  3           0  0  0
    1.4815   -3.0096    1.6331 N   0  0  0  0  0  3           0  0  0
    3.5434   -0.5023    0.3590 C   0  0  0  0  0  4           0  0  0
    0.9649   -6.0144    1.1912 C   0  0  0  0  0  4           0  0  0
   -0.5904   -1.7781    6.2443 C   0  0  0  0  0  4           0  0  0
    2.2646    0.7905   -0.7905 C   0  0  0  0  0  4           0  0  0
    2.2594   -0.8203    0.7729 C   0  0  0  0  0  4           0  0  0
   -1.6260   -0.7902    6.4258 C   0  0  0  0  0  4           0  0  0
   -2.1195    0.0316    5.3811 C   0  0  0  0  0  4           0  0  0
   -1.5841    0.0215    4.0256 C   0  0  0  0  0  4           0  0  0
   -0.5420    0.0000    1.3965 C   0  0  0  0  0  4           0  0  0
    1.9636   -6.9558    0.9382 C   0  0  0  0  0  4           0  0  0
    0.2748   -6.0078    2.4031 C   0  0  0  0  0  4           0  0  0
   -2.1726   -0.6600    7.7179 C   0  0  0  0  0  4           0  0  0
   -3.1632    0.9352    5.6765 C   0  0  0  0  0  4           0  0  0
   -2.1072   -0.8434    3.0528 C   0  0  0  0  0  4           0  0  0
   -0.5358    0.8797    3.6617 C   0  0  0  0  0  4           0  0  0
   -1.5942   -0.8520    1.7528 C   0  0  0  0  0  4           0  0  0
   -0.0223    0.8706    2.3619 C   0  0  0  0  0  4           0  0  0
    2.2827   -7.8937    1.9193 C   0  0  0  0  0  4           0  0  0
    0.6009   -6.9506    3.3780 C   0  0  0  0  0  4           0  0  0
   -3.2006    0.2435    7.9817 C   0  0  0  0  0  4           0  0  0
   -3.6988    1.0391    6.9599 C   0  0  0  0  0  4           0  0  0
    1.6032   -7.8913    3.1376 C   0  0  0  0  0  4           0  0  0
    1.8705    1.8255   -1.7034 C   0  0  0  0  0  4           0  0  0
    0.0000    0.0000    0.0000 C   0  0  0  0  0  4           0  0  0
    1.8002   -1.7572    1.7630 C   0  0  0  0  0  4           0  0  0
  1 15  1  0     0  0
  2  3  2  0     0  0
  2  4  2  0     0  0
  2 13  1  0     0  0
  2 16  1  0     0  0
  5 37  2  0     0  0
  6 37  1  0     0  0
  7  8  2  0     0  0
  7  9  1  0     0  0
  8 10  1  0     0  0
  9 17  1  0     0  0
 10 17  2  0     0  0
 11 18  1  0     0  0
 11 19  1  0     0  0
 11 38  1  0     0  0
 12 15  1  0     0  0
 12 18  2  0     0  0
 13 14  1  0     0  0
 14 39  2  0     0  0
 15 19  2  0     0  0
 16 24  2  0     0  0
 16 25  1  0     0  0
 17 20  1  0     0  0
 18 37  1  0     0  0
 19 39  1  0     0  0
 20 21  1  0     0  0
 20 26  2  0     0  0
 21 22  1  0     0  0
 21 27  2  0     0  0
 22 28  2  0     0  0
 22 29  1  0     0  0
 23 30  2  0     0  0
 23 31  1  0     0  0
 23 38  1  0     0  0
 24 32  1  0     0  0
 25 33  2  0     0  0
 26 34  1  0     0  0
 27 35  1  0     0  0
 28 30  1  0     0  0
 29 31  2  0     0  0
 32 36  2  0     0  0
 33 36  1  0     0  0
 34 35  2  0     0  0
M  END
> <standard_type>
pIC50

> <# Confs.>
25

> <canonical_smiles>
ClC(N=C1C(O)=O)=C(/C([H])=N\[N]S(=O)(C2=CC=CC=C2)=O)N1CC3=CC=C(C4=CC=CC=C4C5=NN=N[N]5)C=C3

> <standard_relation>
=

> <Publication_ID>
nan

> <predicted_activity_value>
6.657577319177793

> <actual_activity_value>
6.221848749616356

> <Compound>
13

> <standard_units>
nM

> hash
12524707739203029469

$$$$
13_
XXILIB    08252103443D 0   0.00000     0.00000

 39 43  0     1  0            999 V2000
    5.0189   -1.4630   -0.1856 Cl  0  0  0  0  0  1           0  0  0
   -1.0036   -2.8379   -2.5585 S   0  0  1  0  0  6           0  0  0
   -1.9562   -2.8174   -1.4654 O   0  0  0  0  0  2           0  0  0
   -1.2860   -2.1479   -3.8028 O   0  0  0  0  0  2           0  0  0
    0.7198    2.9050    0.1761 O   0  0  0  0  0  2           0  0  0
    2.9470    3.3305    0.0564 O   0  0  0  0  0  2           0  0  0
    1.9870    1.5757    5.6637 N   0  0  0  0  0  3           0  0  0
    1.6874    2.4245    6.6374 N   0  0  0  0  0  3           0  0  0
    0.8918    0.8192    5.5129 N   0  0  0  0  0  3           0  0  0
    0.4109    2.2116    7.1040 N   0  0  0  0  0  3           0  0  0
    1.4528    0.0000   -0.0000 N   0  0  0  0  0  3           0  0  0
    3.5308    0.7612   -0.0805 N   0  0  0  0  0  3           0  0  0
    0.5290   -2.3773   -1.9703 N   0  0  0  0  0  3           0  0  0
    1.0154   -3.1215   -0.8152 N   0  0  0  0  0  3           0  0  0
    3.5434   -0.6090   -0.1013 C   0  0  0  0  0  4           0  0  0
   -0.6878   -4.5259   -2.9641 C   0  0  0  0  0  4           0  0  0
   -0.0753    1.2093    6.3986 C   0  0  0  0  0  4           0  0  0
    2.2646    1.1179    0.0000 C   0  0  0  0  0  4           0  0  0
    2.2594   -1.1266   -0.0335 C   0  0  0  0  0  4           0  0  0
   -1.3780    0.5977    6.5008 C   0  0  0  0  0  4           0  0  0
   -2.0524   -0.0018    5.4071 C   0  0  0  0  0  4           0  0  0
   -1.5376   -0.0008    4.0436 C   0  0  0  0  0  4           0  0  0
   -0.5420   -0.0000    1.3965 C   0  0  0  0  0  4           0  0  0
   -0.2343   -4.8410   -4.2459 C   0  0  0  0  0  4           0  0  0
   -0.9333   -5.5258   -2.0234 C   0  0  0  0  0  4           0  0  0
   -1.9906    0.5954    7.7696 C   0  0  0  0  0  4           0  0  0
   -3.3081   -0.6023    5.6429 C   0  0  0  0  0  4           0  0  0
   -1.2946    1.2044    3.3682 C   0  0  0  0  0  4           0  0  0
   -1.2694   -1.2056    3.3770 C   0  0  0  0  0  4           0  0  0
   -0.7999    1.2049    2.0610 C   0  0  0  0  0  4           0  0  0
   -0.7753   -1.2052    2.0697 C   0  0  0  0  0  4           0  0  0
   -0.0120   -6.1755   -4.5830 C   0  0  0  0  0  4           0  0  0
   -0.7083   -6.8579   -2.3705 C   0  0  0  0  0  4           0  0  0
   -3.2334   -0.0022    7.9727 C   0  0  0  0  0  4           0  0  0
   -3.8910   -0.6046    6.9097 C   0  0  0  0  0  4           0  0  0
   -0.2479   -7.1827   -3.6471 C   0  0  0  0  0  4           0  0  0
    1.8705    2.4953    0.0864 C   0  0  0  0  0  4           0  0  0
    0.0000    0.0000    0.0000 C   0  0  0  0  0  4           0  0  0
    1.8002   -2.4892    0.0040 C   0  0  0  0  0  4           0  0  0
  1 15  1  0     0  0
  2  3  2  0     0  0
  2  4  2  0     0  0
  2 13  1  0     0  0
  2 16  1  0     0  0
  5 37  2  0     0  0
  6 37  1  0     0  0
  7  8  2  0     0  0
  7  9  1  0     0  0
  8 10  1  0     0  0
  9 17  1  0     0  0
 10 17  2  0     0  0
 11 18  1  0     0  0
 11 19  1  0     0  0
 11 38  1  0     0  0
 12 15  1  0     0  0
 12 18  2  0     0  0
 13 14  1  0     0  0
 14 39  2  0     0  0
 15 19  2  0     0  0
 16 24  2  0     0  0
 16 25  1  0     0  0
 17 20  1  0     0  0
 18 37  1  0     0  0
 19 39  1  0     0  0
 20 21  1  0     0  0
 20 26  2  0     0  0
 21 22  1  0     0  0
 21 27  2  0     0  0
 22 28  2  0     0  0
 22 29  1  0     0  0
 23 30  2  0     0  0
 23 31  1  0     0  0
 23 38  1  0     0  0
 24 32  1  0     0  0
 25 33  2  0     0  0
 26 34  1  0     0  0
 27 35  1  0     0  0
 28 30  1  0     0  0
 29 31  2  0     0  0
 32 36  2  0     0  0
 33 36  1  0     0  0
 34 35  2  0     0  0
M  END
> <standard_type>
pIC50

> <# Confs.>
25

> <canonical_smiles>
ClC(N=C1C(O)=O)=C(/C([H])=N\[N]S(=O)(C2=CC=CC=C2)=O)N1CC3=CC=C(C4=CC=CC=C4C5=NN=N[N]5)C=C3

> <standard_relation>
=

> <Publication_ID>
nan

> <predicted_activity_value>
6.657577319177793

> <actual_activity_value>
6.221848749616356

> <Compound>
13

> <standard_units>
nM

> hash
12524707739203029469

$$$$
13_
XXILIB    08252103443D 0   0.00000     0.00000

 39 43  0     1  0            999 V2000
    5.0189   -1.1657    0.9033 Cl  0  0  0  0  0  1           0  0  0
   -0.4988   -4.4272    0.1470 S   0  0  1  0  0  6           0  0  0
   -1.5869   -4.2963    1.0966 O   0  0  0  0  0  2           0  0  0
   -0.7631   -4.7068   -1.2516 O   0  0  0  0  0  2           0  0  0
    0.7198    2.1786   -1.9296 O   0  0  0  0  0  2           0  0  0
    2.9470    2.3949   -2.3152 O   0  0  0  0  0  2           0  0  0
    0.4356   -3.5786    5.4487 N   0  0  0  0  0  3           0  0  0
    1.2069   -2.9625    6.3340 N   0  0  0  0  0  3           0  0  0
   -0.6827   -2.8434    5.3907 N   0  0  0  0  0  3           0  0  0
    0.5859   -1.8426    6.8367 N   0  0  0  0  0  3           0  0  0
    1.4528    0.0000   -0.0000 N   0  0  0  0  0  3           0  0  0
    3.5308    0.4814   -0.5951 N   0  0  0  0  0  3           0  0  0
    0.5290   -3.0742    0.2878 N   0  0  0  0  0  3           0  0  0
    1.0154   -2.7836    1.6308 N   0  0  0  0  0  3           0  0  0
    3.5434   -0.5023    0.3590 C   0  0  0  0  0  4           0  0  0
    0.5760   -5.6979    0.7335 C   0  0  0  0  0  4           0  0  0
   -0.5904   -1.7781    6.2443 C   0  0  0  0  0  4           0  0  0
    2.2646    0.7905   -0.7905 C   0  0  0  0  0  4           0  0  0
    2.2594   -0.8203    0.7729 C   0  0  0  0  0  4           0  0  0
   -1.6260   -0.7902    6.4258 C   0  0  0  0  0  4           0  0  0
   -2.1195    0.0316    5.3811 C   0  0  0  0  0  4           0  0  0
   -1.5841    0.0215    4.0256 C   0  0  0  0  0  4           0  0  0
   -0.5420    0.0000    1.3965 C   0  0  0  0  0  4           0  0  0
    1.3892   -6.3716   -0.1789 C   0  0  0  0  0  4           0  0  0
    0.5718   -6.0448    2.0843 C   0  0  0  0  0  4           0  0  0
   -2.1726   -0.6600    7.7179 C   0  0  0  0  0  4           0  0  0
   -3.1632    0.9352    5.6765 C   0  0  0  0  0  4           0  0  0
   -2.1072   -0.8434    3.0528 C   0  0  0  0  0  4           0  0  0
   -0.5358    0.8797    3.6617 C   0  0  0  0  0  4           0  0  0
   -1.5942   -0.8520    1.7528 C   0  0  0  0  0  4           0  0  0
   -0.0223    0.8706    2.3619 C   0  0  0  0  0  4           0  0  0
    2.2184   -7.3975    0.2727 C   0  0  0  0  0  4           0  0  0
    1.4045   -7.0729    2.5261 C   0  0  0  0  0  4           0  0  0
   -3.2006    0.2435    7.9817 C   0  0  0  0  0  4           0  0  0
   -3.6988    1.0391    6.9599 C   0  0  0  0  0  4           0  0  0
    2.2270   -7.7476    1.6230 C   0  0  0  0  0  4           0  0  0
    1.8705    1.8255   -1.7034 C   0  0  0  0  0  4           0  0  0
    0.0000    0.0000    0.0000 C   0  0  0  0  0  4           0  0  0
    1.8002   -1.7572    1.7630 C   0  0  0  0  0  4           0  0  0
  1 15  1  0     0  0
  2  3  2  0     0  0
  2  4  2  0     0  0
  2 13  1  0     0  0
  2 16  1  0     0  0
  5 37  2  0     0  0
  6 37  1  0     0  0
  7  8  2  0     0  0
  7  9  1  0     0  0
  8 10  1  0     0  0
  9 17  1  0     0  0
 10 17  2  0     0  0
 11 18  1  0     0  0
 11 19  1  0     0  0
 11 38  1  0     0  0
 12 15  1  0     0  0
 12 18  2  0     0  0
 13 14  1  0     0  0
 14 39  2  0     0  0
 15 19  2  0     0  0
 16 24  2  0     0  0
 16 25  1  0     0  0
 17 20  1  0     0  0
 18 37  1  0     0  0
 19 39  1  0     0  0
 20 21  1  0     0  0
 20 26  2  0     0  0
 21 22  1  0     0  0
 21 27  2  0     0  0
 22 28  2  0     0  0
 22 29  1  0     0  0
 23 30  2  0     0  0
 23 31  1  0     0  0
 23 38  1  0     0  0
 24 32  1  0     0  0
 25 33  2  0     0  0
 26 34  1  0     0  0
 27 35  1  0     0  0
 28 30  1  0     0  0
 29 31  2  0     0  0
 32 36  2  0     0  0
 33 36  1  0     0  0
 34 35  2  0     0  0
M  END
> <standard_type>
pIC50

> <# Confs.>
25

> <canonical_smiles>
ClC(N=C1C(O)=O)=C(/C([H])=N\[N]S(=O)(C2=CC=CC=C2)=O)N1CC3=CC=C(C4=CC=CC=C4C5=NN=N[N]5)C=C3

> <standard_relation>
=

> <Publication_ID>
nan

> <predicted_activity_value>
6.657577319177793

> <actual_activity_value>
6.221848749616356

> <Compound>
13

> <standard_units>
nM

> hash
12524707739203029469

$$$$
13_
XXILIB    08252103443D 0   0.00000     0.00000

 39 43  0     1  0            999 V2000
    5.0189    1.4630    0.1856 Cl  0  0  0  0  0  1           0  0  0
    2.3200    3.7893   -3.5521 S   0  0  1  0  0  6           0  0  0
    1.9906    3.2432   -4.8545 O   0  0  0  0  0  2           0  0  0
    1.9271    5.1382   -3.1914 O   0  0  0  0  0  2           0  0  0
    0.7198   -2.9050   -0.1761 O   0  0  0  0  0  2           0  0  0
    2.9470   -3.3305   -0.0564 O   0  0  0  0  0  2           0  0  0
    1.9870    1.5757    5.6637 N   0  0  0  0  0  3           0  0  0
    1.6874    2.4245    6.6374 N   0  0  0  0  0  3           0  0  0
    0.8918    0.8192    5.5129 N   0  0  0  0  0  3           0  0  0
    0.4109    2.2116    7.1040 N   0  0  0  0  0  3           0  0  0
    1.4528    0.0000    0.0000 N   0  0  0  0  0  3           0  0  0
    3.5308   -0.7612    0.0805 N   0  0  0  0  0  3           0  0  0
    1.8196    2.6932   -2.3459 N   0  0  0  0  0  3           0  0  0
    1.5903    3.2644   -1.0247 N   0  0  0  0  0  3           0  0  0
    3.5434    0.6090    0.1013 C   0  0  0  0  0  4           0  0  0
    4.0709    3.6914   -3.3559 C   0  0  0  0  0  4           0  0  0
   -0.0753    1.2093    6.3986 C   0  0  0  0  0  4           0  0  0
    2.2646   -1.1179    0.0000 C   0  0  0  0  0  4           0  0  0
    2.2594    1.1266    0.0335 C   0  0  0  0  0  4           0  0  0
   -1.3780    0.5977    6.5008 C   0  0  0  0  0  4           0  0  0
   -2.0524   -0.0018    5.4071 C   0  0  0  0  0  4           0  0  0
   -1.5376   -0.0008    4.0436 C   0  0  0  0  0  4           0  0  0
   -0.5420   -0.0000    1.3965 C   0  0  0  0  0  4           0  0  0
    4.7028    4.5647   -2.4694 C   0  0  0  0  0  4           0  0  0
    4.8066    2.7805   -4.1134 C   0  0  0  0  0  4           0  0  0
   -1.9906    0.5954    7.7696 C   0  0  0  0  0  4           0  0  0
   -3.3081   -0.6023    5.6429 C   0  0  0  0  0  4           0  0  0
   -1.2946    1.2044    3.3682 C   0  0  0  0  0  4           0  0  0
   -1.2694   -1.2056    3.3770 C   0  0  0  0  0  4           0  0  0
   -0.7999    1.2049    2.0610 C   0  0  0  0  0  4           0  0  0
   -0.7753   -1.2052    2.0697 C   0  0  0  0  0  4           0  0  0
    6.0893    4.5136   -2.3320 C   0  0  0  0  0  4           0  0  0
    6.1933    2.7376   -3.9692 C   0  0  0  0  0  4           0  0  0
   -3.2334   -0.0022    7.9727 C   0  0  0  0  0  4           0  0  0
   -3.8910   -0.6046    6.9097 C   0  0  0  0  0  4           0  0  0
    6.8339    3.6014   -3.0800 C   0  0  0  0  0  4           0  0  0
    1.8705   -2.4953   -0.0864 C   0  0  0  0  0  4           0  0  0
    0.0000    0.0000    0.0000 C   0  0  0  0  0  4           0  0  0
    1.8002    2.4892   -0.0040 C   0  0  0  0  0  4           0  0  0
  1 15  1  0     0  0
  2  3  2  0     0  0
  2  4  2  0     0  0
  2 13  1  0     0  0
  2 16  1  0     0  0
  5 37  2  0     0  0
  6 37  1  0     0  0
  7  8  2  0     0  0
  7  9  1  0     0  0
  8 10  1  0     0  0
  9 17  1  0     0  0
 10 17  2  0     0  0
 11 18  1  0     0  0
 11 19  1  0     0  0
 11 38  1  0     0  0
 12 15  1  0     0  0
 12 18  2  0     0  0
 13 14  1  0     0  0
 14 39  2  0     0  0
 15 19  2  0     0  0
 16 24  2  0     0  0
 16 25  1  0     0  0
 17 20  1  0     0  0
 18 37  1  0     0  0
 19 39  1  0     0  0
 20 21  1  0     0  0
 20 26  2  0     0  0
 21 22  1  0     0  0
 21 27  2  0     0  0
 22 28  2  0     0  0
 22 29  1  0     0  0
 23 30  2  0     0  0
 23 31  1  0     0  0
 23 38  1  0     0  0
 24 32  1  0     0  0
 25 33  2  0     0  0
 26 34  1  0     0  0
 27 35  1  0     0  0
 28 30  1  0     0  0
 29 31  2  0     0  0
 32 36  2  0     0  0
 33 36  1  0     0  0
 34 35  2  0     0  0
M  END
> <standard_type>
pIC50

> <# Confs.>
25

> <canonical_smiles>
ClC(N=C1C(O)=O)=C(/C([H])=N\[N]S(=O)(C2=CC=CC=C2)=O)N1CC3=CC=C(C4=CC=CC=C4C5=NN=N[N]5)C=C3

> <standard_relation>
=

> <Publication_ID>
nan

> <predicted_activity_value>
6.657577319177793

> <actual_activity_value>
6.221848749616356

> <Compound>
13

> <standard_units>
nM

> hash
12524707739203029469

$$$$
13_
XXILIB    08252103443D 0   0.00000     0.00000

 39 43  0     1  0            999 V2000
    5.0189   -1.4630   -0.1856 Cl  0  0  0  0  0  1           0  0  0
    0.5408   -3.3838   -3.4835 S   0  0  1  0  0  6           0  0  0
   -0.8156   -3.2438   -2.9902 O   0  0  0  0  0  2           0  0  0
    0.9021   -2.9129   -4.8071 O   0  0  0  0  0  2           0  0  0
    0.7198    2.9050    0.1761 O   0  0  0  0  0  2           0  0  0
    2.9470    3.3305    0.0564 O   0  0  0  0  0  2           0  0  0
    1.9870    1.5757    5.6637 N   0  0  0  0  0  3           0  0  0
    1.6874    2.4245    6.6374 N   0  0  0  0  0  3           0  0  0
    0.8918    0.8192    5.5129 N   0  0  0  0  0  3           0  0  0
    0.4109    2.2116    7.1040 N   0  0  0  0  0  3           0  0  0
    1.4528    0.0000    0.0000 N   0  0  0  0  0  3           0  0  0
    3.5308    0.7612   -0.0805 N   0  0  0  0  0  3           0  0  0
    1.6224   -2.7555   -2.3249 N   0  0  0  0  0  3           0  0  0
    1.4815   -3.2829   -0.9733 N   0  0  0  0  0  3           0  0  0
    3.5434   -0.6090   -0.1013 C   0  0  0  0  0  4           0  0  0
    0.9649   -5.0952   -3.4106 C   0  0  0  0  0  4           0  0  0
   -0.0753    1.2093    6.3986 C   0  0  0  0  0  4           0  0  0
    2.2646    1.1179    0.0000 C   0  0  0  0  0  4           0  0  0
    2.2594   -1.1266   -0.0335 C   0  0  0  0  0  4           0  0  0
   -1.3780    0.5977    6.5008 C   0  0  0  0  0  4           0  0  0
   -2.0524   -0.0018    5.4071 C   0  0  0  0  0  4           0  0  0
   -1.5376   -0.0008    4.0436 C   0  0  0  0  0  4           0  0  0
   -0.5420   -0.0000    1.3965 C   0  0  0  0  0  4           0  0  0
    1.9636   -5.5819   -4.2551 C   0  0  0  0  0  4           0  0  0
    0.2748   -5.9474   -2.5489 C   0  0  0  0  0  4           0  0  0
   -1.9906    0.5954    7.7696 C   0  0  0  0  0  4           0  0  0
   -3.3081   -0.6023    5.6429 C   0  0  0  0  0  4           0  0  0
   -1.2946    1.2044    3.3682 C   0  0  0  0  0  4           0  0  0
   -1.2694   -1.2056    3.3770 C   0  0  0  0  0  4           0  0  0
   -0.7999    1.2049    2.0610 C   0  0  0  0  0  4           0  0  0
   -0.7753   -1.2052    2.0697 C   0  0  0  0  0  4           0  0  0
    2.2827   -6.9389   -4.2246 C   0  0  0  0  0  4           0  0  0
    0.6009   -7.3034   -2.5262 C   0  0  0  0  0  4           0  0  0
   -3.2334   -0.0022    7.9727 C   0  0  0  0  0  4           0  0  0
   -3.8910   -0.6046    6.9097 C   0  0  0  0  0  4           0  0  0
    1.6032   -7.7986   -3.3614 C   0  0  0  0  0  4           0  0  0
    1.8705    2.4953    0.0864 C   0  0  0  0  0  4           0  0  0
    0.0000    0.0000    0.0000 C   0  0  0  0  0  4           0  0  0
    1.8002   -2.4892    0.0040 C   0  0  0  0  0  4           0  0  0
  1 15  1  0     0  0
  2  3  2  0     0  0
  2  4  2  0     0  0
  2 13  1  0     0  0
  2 16  1  0     0  0
  5 37  2  0     0  0
  6 37  1  0     0  0
  7  8  2  0     0  0
  7  9  1  0     0  0
  8 10  1  0     0  0
  9 17  1  0     0  0
 10 17  2  0     0  0
 11 18  1  0     0  0
 11 19  1  0     0  0
 11 38  1  0     0  0
 12 15  1  0     0  0
 12 18  2  0     0  0
 13 14  1  0     0  0
 14 39  2  0     0  0
 15 19  2  0     0  0
 16 24  2  0     0  0
 16 25  1  0     0  0
 17 20  1  0     0  0
 18 37  1  0     0  0
 19 39  1  0     0  0
 20 21  1  0     0  0
 20 26  2  0     0  0
 21 22  1  0     0  0
 21 27  2  0     0  0
 22 28  2  0     0  0
 22 29  1  0     0  0
 23 30  2  0     0  0
 23 31  1  0     0  0
 23 38  1  0     0  0
 24 32  1  0     0  0
 25 33  2  0     0  0
 26 34  1  0     0  0
 27 35  1  0     0  0
 28 30  1  0     0  0
 29 31  2  0     0  0
 32 36  2  0     0  0
 33 36  1  0     0  0
 34 35  2  0     0  0
M  END
> <standard_type>
pIC50

> <# Confs.>
25

> <canonical_smiles>
ClC(N=C1C(O)=O)=C(/C([H])=N\[N]S(=O)(C2=CC=CC=C2)=O)N1CC3=CC=C(C4=CC=CC=C4C5=NN=N[N]5)C=C3

> <standard_relation>
=

> <Publication_ID>
nan

> <predicted_activity_value>
6.657577319177793

> <actual_activity_value>
6.221848749616356

> <Compound>
13

> <standard_units>
nM

> hash
12524707739203029469

$$$$
13_
XXILIB    08252103443D 0   0.00000     0.00000

 39 43  0     1  0            999 V2000
    5.0189   -1.4630   -0.1856 Cl  0  0  0  0  0  1           0  0  0
    0.5408   -3.3838   -3.4835 S   0  0  1  0  0  6           0  0  0
    1.1117   -3.2134   -4.8057 O   0  0  0  0  0  2           0  0  0
    0.0438   -4.6757   -3.0500 O   0  0  0  0  0  2           0  0  0
    0.7198    2.9050    0.1761 O   0  0  0  0  0  2           0  0  0
    2.9470    3.3305    0.0564 O   0  0  0  0  0  2           0  0  0
    1.9870    1.5757    5.6637 N   0  0  0  0  0  3           0  0  0
    1.6874    2.4245    6.6374 N   0  0  0  0  0  3           0  0  0
    0.8918    0.8192    5.5129 N   0  0  0  0  0  3           0  0  0
    0.4109    2.2116    7.1040 N   0  0  0  0  0  3           0  0  0
    1.4528    0.0000    0.0000 N   0  0  0  0  0  3           0  0  0
    3.5308    0.7612   -0.0805 N   0  0  0  0  0  3           0  0  0
    1.6224   -2.7555   -2.3249 N   0  0  0  0  0  3           0  0  0
    1.4815   -3.2829   -0.9733 N   0  0  0  0  0  3           0  0  0
    3.5434   -0.6090   -0.1013 C   0  0  0  0  0  4           0  0  0
   -0.7907   -2.2373   -3.3216 C   0  0  0  0  0  4           0  0  0
   -0.0753    1.2093    6.3986 C   0  0  0  0  0  4           0  0  0
    2.2646    1.1179    0.0000 C   0  0  0  0  0  4           0  0  0
    2.2594   -1.1266   -0.0335 C   0  0  0  0  0  4           0  0  0
   -1.3780    0.5977    6.5008 C   0  0  0  0  0  4           0  0  0
   -2.0524   -0.0018    5.4071 C   0  0  0  0  0  4           0  0  0
   -1.5376   -0.0008    4.0436 C   0  0  0  0  0  4           0  0  0
   -0.5420   -0.0000    1.3965 C   0  0  0  0  0  4           0  0  0
   -1.8072   -2.5053   -2.4036 C   0  0  0  0  0  4           0  0  0
   -0.8382   -1.1058   -4.1354 C   0  0  0  0  0  4           0  0  0
   -1.9906    0.5954    7.7696 C   0  0  0  0  0  4           0  0  0
   -3.3081   -0.6023    5.6429 C   0  0  0  0  0  4           0  0  0
   -1.2946    1.2044    3.3682 C   0  0  0  0  0  4           0  0  0
   -1.2694   -1.2056    3.3770 C   0  0  0  0  0  4           0  0  0
   -0.7999    1.2049    2.0610 C   0  0  0  0  0  4           0  0  0
   -0.7753   -1.2052    2.0697 C   0  0  0  0  0  4           0  0  0
   -2.8780   -1.6193   -2.2921 C   0  0  0  0  0  4           0  0  0
   -1.9139   -0.2258   -4.0167 C   0  0  0  0  0  4           0  0  0
   -3.2334   -0.0022    7.9727 C   0  0  0  0  0  4           0  0  0
   -3.8910   -0.6046    6.9097 C   0  0  0  0  0  4           0  0  0
   -2.9315   -0.4810   -3.0966 C   0  0  0  0  0  4           0  0  0
    1.8705    2.4953    0.0864 C   0  0  0  0  0  4           0  0  0
    0.0000    0.0000    0.0000 C   0  0  0  0  0  4           0  0  0
    1.8002   -2.4892    0.0040 C   0  0  0  0  0  4           0  0  0
  1 15  1  0     0  0
  2  3  2  0     0  0
  2  4  2  0     0  0
  2 13  1  0     0  0
  2 16  1  0     0  0
  5 37  2  0     0  0
  6 37  1  0     0  0
  7  8  2  0     0  0
  7  9  1  0     0  0
  8 10  1  0     0  0
  9 17  1  0     0  0
 10 17  2  0     0  0
 11 18  1  0     0  0
 11 19  1  0     0  0
 11 38  1  0     0  0
 12 15  1  0     0  0
 12 18  2  0     0  0
 13 14  1  0     0  0
 14 39  2  0     0  0
 15 19  2  0     0  0
 16 24  2  0     0  0
 16 25  1  0     0  0
 17 20  1  0     0  0
 18 37  1  0     0  0
 19 39  1  0     0  0
 20 21  1  0     0  0
 20 26  2  0     0  0
 21 22  1  0     0  0
 21 27  2  0     0  0
 22 28  2  0     0  0
 22 29  1  0     0  0
 23 30  2  0     0  0
 23 31  1  0     0  0
 23 38  1  0     0  0
 24 32  1  0     0  0
 25 33  2  0     0  0
 26 34  1  0     0  0
 27 35  1  0     0  0
 28 30  1  0     0  0
 29 31  2  0     0  0
 32 36  2  0     0  0
 33 36  1  0     0  0
 34 35  2  0     0  0
M  END
> <standard_type>
pIC50

> <# Confs.>
25

> <canonical_smiles>
ClC(N=C1C(O)=O)=C(/C([H])=N\[N]S(=O)(C2=CC=CC=C2)=O)N1CC3=CC=C(C4=CC=CC=C4C5=NN=N[N]5)C=C3

> <standard_relation>
=

> <Publication_ID>
nan

> <predicted_activity_value>
6.657577319177793

> <actual_activity_value>
6.221848749616356

> <Compound>
13

> <standard_units>
nM

> hash
12524707739203029469

$$$$
13_
XXILIB    08252103443D 0   0.00000     0.00000

 39 43  0     1  0            999 V2000
    5.0189   -1.4630   -0.1856 Cl  0  0  0  0  0  1           0  0  0
    0.5408   -3.3838   -3.4835 S   0  0  1  0  0  6           0  0  0
   -0.8156   -3.2438   -2.9902 O   0  0  0  0  0  2           0  0  0
    0.9021   -2.9129   -4.8071 O   0  0  0  0  0  2           0  0  0
    0.7198    2.9050    0.1761 O   0  0  0  0  0  2           0  0  0
    2.9470    3.3305    0.0564 O   0  0  0  0  0  2           0  0  0
    2.2960    0.5365    6.0046 N   0  0  0  0  0  3           0  0  0
    2.2932   -0.5864    6.7099 N   0  0  0  0  0  3           0  0  0
    1.0050    0.8707    5.8781 N   0  0  0  0  0  3           0  0  0
    1.0104   -0.9656    7.0312 N   0  0  0  0  0  3           0  0  0
    1.4528    0.0000    0.0000 N   0  0  0  0  0  3           0  0  0
    3.5308    0.7612   -0.0805 N   0  0  0  0  0  3           0  0  0
    1.6224   -2.7555   -2.3249 N   0  0  0  0  0  3           0  0  0
    1.4815   -3.2829   -0.9733 N   0  0  0  0  0  3           0  0  0
    3.5434   -0.6090   -0.1013 C   0  0  0  0  0  4           0  0  0
    0.9649   -5.0952   -3.4106 C   0  0  0  0  0  4           0  0  0
    0.2158   -0.0529    6.5076 C   0  0  0  0  0  4           0  0  0
    2.2646    1.1179    0.0000 C   0  0  0  0  0  4           0  0  0
    2.2594   -1.1266   -0.0335 C   0  0  0  0  0  4           0  0  0
   -1.2246    0.0086    6.5583 C   0  0  0  0  0  4           0  0  0
   -2.0524   -0.0018    5.4071 C   0  0  0  0  0  4           0  0  0
   -1.5376   -0.0008    4.0436 C   0  0  0  0  0  4           0  0  0
   -0.5420   -0.0000    1.3965 C   0  0  0  0  0  4           0  0  0
    1.9636   -5.5819   -4.2551 C   0  0  0  0  0  4           0  0  0
    0.2748   -5.9474   -2.5489 C   0  0  0  0  0  4           0  0  0
   -1.8223    0.0690    7.8328 C   0  0  0  0  0  4           0  0  0
   -3.4521    0.0238    5.5889 C   0  0  0  0  0  4           0  0  0
   -1.2946    1.2044    3.3682 C   0  0  0  0  0  4           0  0  0
   -1.2694   -1.2056    3.3770 C   0  0  0  0  0  4           0  0  0
   -0.7999    1.2049    2.0610 C   0  0  0  0  0  4           0  0  0
   -0.7753   -1.2052    2.0697 C   0  0  0  0  0  4           0  0  0
    2.2827   -6.9389   -4.2246 C   0  0  0  0  0  4           0  0  0
    0.6009   -7.3034   -2.5262 C   0  0  0  0  0  4           0  0  0
   -3.2078    0.0968    7.9825 C   0  0  0  0  0  4           0  0  0
   -4.0234    0.0706    6.8602 C   0  0  0  0  0  4           0  0  0
    1.6032   -7.7986   -3.3614 C   0  0  0  0  0  4           0  0  0
    1.8705    2.4953    0.0864 C   0  0  0  0  0  4           0  0  0
    0.0000    0.0000    0.0000 C   0  0  0  0  0  4           0  0  0
    1.8002   -2.4892    0.0040 C   0  0  0  0  0  4           0  0  0
  1 15  1  0     0  0
  2  3  2  0     0  0
  2  4  2  0     0  0
  2 13  1  0     0  0
  2 16  1  0     0  0
  5 37  2  0     0  0
  6 37  1  0     0  0
  7  8  2  0     0  0
  7  9  1  0     0  0
  8 10  1  0     0  0
  9 17  1  0     0  0
 10 17  2  0     0  0
 11 18  1  0     0  0
 11 19  1  0     0  0
 11 38  1  0     0  0
 12 15  1  0     0  0
 12 18  2  0     0  0
 13 14  1  0     0  0
 14 39  2  0     0  0
 15 19  2  0     0  0
 16 24  2  0     0  0
 16 25  1  0     0  0
 17 20  1  0     0  0
 18 37  1  0     0  0
 19 39  1  0     0  0
 20 21  1  0     0  0
 20 26  2  0     0  0
 21 22  1  0     0  0
 21 27  2  0     0  0
 22 28  2  0     0  0
 22 29  1  0     0  0
 23 30  2  0     0  0
 23 31  1  0     0  0
 23 38  1  0     0  0
 24 32  1  0     0  0
 25 33  2  0     0  0
 26 34  1  0     0  0
 27 35  1  0     0  0
 28 30  1  0     0  0
 29 31  2  0     0  0
 32 36  2  0     0  0
 33 36  1  0     0  0
 34 35  2  0     0  0
M  END
> <standard_type>
pIC50

> <# Confs.>
25

> <canonical_smiles>
ClC(N=C1C(O)=O)=C(/C([H])=N\[N]S(=O)(C2=CC=CC=C2)=O)N1CC3=CC=C(C4=CC=CC=C4C5=NN=N[N]5)C=C3

> <standard_relation>
=

> <Publication_ID>
nan

> <predicted_activity_value>
6.657577319177793

> <actual_activity_value>
6.221848749616356

> <Compound>
13

> <standard_units>
nM

> hash
12524707739203029469

$$$$
13_
XXILIB    08252103443D 0   0.00000     0.00000

 39 43  0     1  0            999 V2000
    5.0189   -1.4630   -0.1856 Cl  0  0  0  0  0  1           0  0  0
   -1.0036   -2.8379   -2.5585 S   0  0  1  0  0  6           0  0  0
   -1.9562   -2.8174   -1.4654 O   0  0  0  0  0  2           0  0  0
   -1.2860   -2.1479   -3.8028 O   0  0  0  0  0  2           0  0  0
    0.7198    2.9050    0.1761 O   0  0  0  0  0  2           0  0  0
    2.9470    3.3305    0.0564 O   0  0  0  0  0  2           0  0  0
    2.2960    0.5365    6.0046 N   0  0  0  0  0  3           0  0  0
    2.2932   -0.5864    6.7099 N   0  0  0  0  0  3           0  0  0
    1.0050    0.8707    5.8781 N   0  0  0  0  0  3           0  0  0
    1.0104   -0.9656    7.0312 N   0  0  0  0  0  3           0  0  0
    1.4528    0.0000   -0.0000 N   0  0  0  0  0  3           0  0  0
    3.5308    0.7612   -0.0805 N   0  0  0  0  0  3           0  0  0
    0.5290   -2.3773   -1.9703 N   0  0  0  0  0  3           0  0  0
    1.0154   -3.1215   -0.8152 N   0  0  0  0  0  3           0  0  0
    3.5434   -0.6090   -0.1013 C   0  0  0  0  0  4           0  0  0
   -0.6878   -4.5259   -2.9641 C   0  0  0  0  0  4           0  0  0
    0.2158   -0.0529    6.5076 C   0  0  0  0  0  4           0  0  0
    2.2646    1.1179    0.0000 C   0  0  0  0  0  4           0  0  0
    2.2594   -1.1266   -0.0335 C   0  0  0  0  0  4           0  0  0
   -1.2246    0.0086    6.5583 C   0  0  0  0  0  4           0  0  0
   -2.0524   -0.0018    5.4071 C   0  0  0  0  0  4           0  0  0
   -1.5376   -0.0008    4.0436 C   0  0  0  0  0  4           0  0  0
   -0.5420   -0.0000    1.3965 C   0  0  0  0  0  4           0  0  0
   -0.2343   -4.8410   -4.2459 C   0  0  0  0  0  4           0  0  0
   -0.9333   -5.5258   -2.0234 C   0  0  0  0  0  4           0  0  0
   -1.8223    0.0690    7.8328 C   0  0  0  0  0  4           0  0  0
   -3.4521    0.0238    5.5889 C   0  0  0  0  0  4           0  0  0
   -1.2946    1.2044    3.3682 C   0  0  0  0  0  4           0  0  0
   -1.2694   -1.2056    3.3770 C   0  0  0  0  0  4           0  0  0
   -0.7999    1.2049    2.0610 C   0  0  0  0  0  4           0  0  0
   -0.7753   -1.2052    2.0697 C   0  0  0  0  0  4           0  0  0
   -0.0120   -6.1755   -4.5830 C   0  0  0  0  0  4           0  0  0
   -0.7083   -6.8579   -2.3705 C   0  0  0  0  0  4           0  0  0
   -3.2078    0.0968    7.9825 C   0  0  0  0  0  4           0  0  0
   -4.0234    0.0706    6.8602 C   0  0  0  0  0  4           0  0  0
   -0.2479   -7.1827   -3.6471 C   0  0  0  0  0  4           0  0  0
    1.8705    2.4953    0.0864 C   0  0  0  0  0  4           0  0  0
    0.0000    0.0000    0.0000 C   0  0  0  0  0  4           0  0  0
    1.8002   -2.4892    0.0040 C   0  0  0  0  0  4           0  0  0
  1 15  1  0     0  0
  2  3  2  0     0  0
  2  4  2  0     0  0
  2 13  1  0     0  0
  2 16  1  0     0  0
  5 37  2  0     0  0
  6 37  1  0     0  0
  7  8  2  0     0  0
  7  9  1  0     0  0
  8 10  1  0     0  0
  9 17  1  0     0  0
 10 17  2  0     0  0
 11 18  1  0     0  0
 11 19  1  0     0  0
 11 38  1  0     0  0
 12 15  1  0     0  0
 12 18  2  0     0  0
 13 14  1  0     0  0
 14 39  2  0     0  0
 15 19  2  0     0  0
 16 24  2  0     0  0
 16 25  1  0     0  0
 17 20  1  0     0  0
 18 37  1  0     0  0
 19 39  1  0     0  0
 20 21  1  0     0  0
 20 26  2  0     0  0
 21 22  1  0     0  0
 21 27  2  0     0  0
 22 28  2  0     0  0
 22 29  1  0     0  0
 23 30  2  0     0  0
 23 31  1  0     0  0
 23 38  1  0     0  0
 24 32  1  0     0  0
 25 33  2  0     0  0
 26 34  1  0     0  0
 27 35  1  0     0  0
 28 30  1  0     0  0
 29 31  2  0     0  0
 32 36  2  0     0  0
 33 36  1  0     0  0
 34 35  2  0     0  0
M  END
> <standard_type>
pIC50

> <# Confs.>
25

> <canonical_smiles>
ClC(N=C1C(O)=O)=C(/C([H])=N\[N]S(=O)(C2=CC=CC=C2)=O)N1CC3=CC=C(C4=CC=CC=C4C5=NN=N[N]5)C=C3

> <standard_relation>
=

> <Publication_ID>
nan

> <predicted_activity_value>
6.657577319177793

> <actual_activity_value>
6.221848749616356

> <Compound>
13

> <standard_units>
nM

> hash
12524707739203029469

$$$$
13_
XXILIB    08252103443D 0   0.00000     0.00000

 39 43  0     1  0            999 V2000
    5.0189   -1.4630   -0.1856 Cl  0  0  0  0  0  1           0  0  0
    0.5408   -3.3838   -3.4835 S   0  0  1  0  0  6           0  0  0
    1.1117   -3.2134   -4.8057 O   0  0  0  0  0  2           0  0  0
    0.0438   -4.6757   -3.0500 O   0  0  0  0  0  2           0  0  0
    0.7198    2.9050    0.1761 O   0  0  0  0  0  2           0  0  0
    2.9470    3.3305    0.0564 O   0  0  0  0  0  2           0  0  0
    2.2960    0.5365    6.0046 N   0  0  0  0  0  3           0  0  0
    2.2932   -0.5864    6.7099 N   0  0  0  0  0  3           0  0  0
    1.0050    0.8707    5.8781 N   0  0  0  0  0  3           0  0  0
    1.0104   -0.9656    7.0312 N   0  0  0  0  0  3           0  0  0
    1.4528    0.0000    0.0000 N   0  0  0  0  0  3           0  0  0
    3.5308    0.7612   -0.0805 N   0  0  0  0  0  3           0  0  0
    1.6224   -2.7555   -2.3249 N   0  0  0  0  0  3           0  0  0
    1.4815   -3.2829   -0.9733 N   0  0  0  0  0  3           0  0  0
    3.5434   -0.6090   -0.1013 C   0  0  0  0  0  4           0  0  0
   -0.7907   -2.2373   -3.3216 C   0  0  0  0  0  4           0  0  0
    0.2158   -0.0529    6.5076 C   0  0  0  0  0  4           0  0  0
    2.2646    1.1179    0.0000 C   0  0  0  0  0  4           0  0  0
    2.2594   -1.1266   -0.0335 C   0  0  0  0  0  4           0  0  0
   -1.2246    0.0086    6.5583 C   0  0  0  0  0  4           0  0  0
   -2.0524   -0.0018    5.4071 C   0  0  0  0  0  4           0  0  0
   -1.5376   -0.0008    4.0436 C   0  0  0  0  0  4           0  0  0
   -0.5420   -0.0000    1.3965 C   0  0  0  0  0  4           0  0  0
   -1.8072   -2.5053   -2.4036 C   0  0  0  0  0  4           0  0  0
   -0.8382   -1.1058   -4.1354 C   0  0  0  0  0  4           0  0  0
   -1.8223    0.0690    7.8328 C   0  0  0  0  0  4           0  0  0
   -3.4521    0.0238    5.5889 C   0  0  0  0  0  4           0  0  0
   -1.2946    1.2044    3.3682 C   0  0  0  0  0  4           0  0  0
   -1.2694   -1.2056    3.3770 C   0  0  0  0  0  4           0  0  0
   -0.7999    1.2049    2.0610 C   0  0  0  0  0  4           0  0  0
   -0.7753   -1.2052    2.0697 C   0  0  0  0  0  4           0  0  0
   -2.8780   -1.6193   -2.2921 C   0  0  0  0  0  4           0  0  0
   -1.9139   -0.2258   -4.0167 C   0  0  0  0  0  4           0  0  0
   -3.2078    0.0968    7.9825 C   0  0  0  0  0  4           0  0  0
   -4.0234    0.0706    6.8602 C   0  0  0  0  0  4           0  0  0
   -2.9315   -0.4810   -3.0966 C   0  0  0  0  0  4           0  0  0
    1.8705    2.4953    0.0864 C   0  0  0  0  0  4           0  0  0
    0.0000    0.0000    0.0000 C   0  0  0  0  0  4           0  0  0
    1.8002   -2.4892    0.0040 C   0  0  0  0  0  4           0  0  0
  1 15  1  0     0  0
  2  3  2  0     0  0
  2  4  2  0     0  0
  2 13  1  0     0  0
  2 16  1  0     0  0
  5 37  2  0     0  0
  6 37  1  0     0  0
  7  8  2  0     0  0
  7  9  1  0     0  0
  8 10  1  0     0  0
  9 17  1  0     0  0
 10 17  2  0     0  0
 11 18  1  0     0  0
 11 19  1  0     0  0
 11 38  1  0     0  0
 12 15  1  0     0  0
 12 18  2  0     0  0
 13 14  1  0     0  0
 14 39  2  0     0  0
 15 19  2  0     0  0
 16 24  2  0     0  0
 16 25  1  0     0  0
 17 20  1  0     0  0
 18 37  1  0     0  0
 19 39  1  0     0  0
 20 21  1  0     0  0
 20 26  2  0     0  0
 21 22  1  0     0  0
 21 27  2  0     0  0
 22 28  2  0     0  0
 22 29  1  0     0  0
 23 30  2  0     0  0
 23 31  1  0     0  0
 23 38  1  0     0  0
 24 32  1  0     0  0
 25 33  2  0     0  0
 26 34  1  0     0  0
 27 35  1  0     0  0
 28 30  1  0     0  0
 29 31  2  0     0  0
 32 36  2  0     0  0
 33 36  1  0     0  0
 34 35  2  0     0  0
M  END
> <standard_type>
pIC50

> <# Confs.>
25

> <canonical_smiles>
ClC(N=C1C(O)=O)=C(/C([H])=N\[N]S(=O)(C2=CC=CC=C2)=O)N1CC3=CC=C(C4=CC=CC=C4C5=NN=N[N]5)C=C3

> <standard_relation>
=

> <Publication_ID>
nan

> <predicted_activity_value>
6.657577319177793

> <actual_activity_value>
6.221848749616356

> <Compound>
13

> <standard_units>
nM

> hash
12524707739203029469

$$$$
13_
XXILIB    08252103443D 0   0.00000     0.00000

 39 43  0     1  0            999 V2000
    5.0189   -1.4630   -0.1856 Cl  0  0  0  0  0  1           0  0  0
    1.5354   -3.7354    3.6650 S   0  0  1  0  0  6           0  0  0
    1.2708   -2.9402    4.8485 O   0  0  0  0  0  2           0  0  0
    0.6351   -4.8021    3.2703 O   0  0  0  0  0  2           0  0  0
    0.7198    2.9050    0.1761 O   0  0  0  0  0  2           0  0  0
    2.9470    3.3305    0.0564 O   0  0  0  0  0  2           0  0  0
    2.1038    1.3854    6.0143 N   0  0  0  0  0  3           0  0  0
    1.6104    2.5507    6.4106 N   0  0  0  0  0  3           0  0  0
    1.0570    0.5496    6.0054 N   0  0  0  0  0  3           0  0  0
    0.2591    2.4592    6.6524 N   0  0  0  0  0  3           0  0  0
    1.4528   -0.0000    0.0000 N   0  0  0  0  0  3           0  0  0
    3.5308    0.7612   -0.0805 N   0  0  0  0  0  3           0  0  0
    1.8196   -2.6932    2.3459 N   0  0  0  0  0  3           0  0  0
    1.5903   -3.2644    1.0247 N   0  0  0  0  0  3           0  0  0
    3.5434   -0.6090   -0.1013 C   0  0  0  0  0  4           0  0  0
    3.1375   -4.4525    3.8469 C   0  0  0  0  0  4           0  0  0
   -0.0753    1.2093    6.3986 C   0  0  0  0  0  4           0  0  0
    2.2646    1.1179    0.0000 C   0  0  0  0  0  4           0  0  0
    2.2594   -1.1266   -0.0335 C   0  0  0  0  0  4           0  0  0
   -1.3780    0.5977    6.5008 C   0  0  0  0  0  4           0  0  0
   -2.0524   -0.0018    5.4071 C   0  0  0  0  0  4           0  0  0
   -1.5376   -0.0008    4.0436 C   0  0  0  0  0  4           0  0  0
   -0.5420   -0.0000    1.3965 C   0  0  0  0  0  4           0  0  0
    3.4406   -5.6198    3.1446 C   0  0  0  0  0  4           0  0  0
    4.0635   -3.8766    4.7163 C   0  0  0  0  0  4           0  0  0
   -1.9906    0.5954    7.7696 C   0  0  0  0  0  4           0  0  0
   -3.3081   -0.6023    5.6429 C   0  0  0  0  0  4           0  0  0
   -1.2946    1.2044    3.3682 C   0  0  0  0  0  4           0  0  0
   -1.2694   -1.2056    3.3770 C   0  0  0  0  0  4           0  0  0
   -0.7999    1.2049    2.0610 C   0  0  0  0  0  4           0  0  0
   -0.7753   -1.2052    2.0697 C   0  0  0  0  0  4           0  0  0
    4.6938   -6.2089    3.3071 C   0  0  0  0  0  4           0  0  0
    5.3143   -4.4738    4.8724 C   0  0  0  0  0  4           0  0  0
   -3.2334   -0.0022    7.9727 C   0  0  0  0  0  4           0  0  0
   -3.8910   -0.6046    6.9097 C   0  0  0  0  0  4           0  0  0
    5.6298   -5.6370    4.1690 C   0  0  0  0  0  4           0  0  0
    1.8705    2.4953    0.0864 C   0  0  0  0  0  4           0  0  0
    0.0000    0.0000    0.0000 C   0  0  0  0  0  4           0  0  0
    1.8002   -2.4892    0.0040 C   0  0  0  0  0  4           0  0  0
  1 15  1  0     0  0
  2  3  2  0     0  0
  2  4  2  0     0  0
  2 13  1  0     0  0
  2 16  1  0     0  0
  5 37  2  0     0  0
  6 37  1  0     0  0
  7  8  2  0     0  0
  7  9  1  0     0  0
  8 10  1  0     0  0
  9 17  1  0     0  0
 10 17  2  0     0  0
 11 18  1  0     0  0
 11 19  1  0     0  0
 11 38  1  0     0  0
 12 15  1  0     0  0
 12 18  2  0     0  0
 13 14  1  0     0  0
 14 39  2  0     0  0
 15 19  2  0     0  0
 16 24  2  0     0  0
 16 25  1  0     0  0
 17 20  1  0     0  0
 18 37  1  0     0  0
 19 39  1  0     0  0
 20 21  1  0     0  0
 20 26  2  0     0  0
 21 22  1  0     0  0
 21 27  2  0     0  0
 22 28  2  0     0  0
 22 29  1  0     0  0
 23 30  2  0     0  0
 23 31  1  0     0  0
 23 38  1  0     0  0
 24 32  1  0     0  0
 25 33  2  0     0  0
 26 34  1  0     0  0
 27 35  1  0     0  0
 28 30  1  0     0  0
 29 31  2  0     0  0
 32 36  2  0     0  0
 33 36  1  0     0  0
 34 35  2  0     0  0
M  END
> <standard_type>
pIC50

> <# Confs.>
25

> <canonical_smiles>
ClC(N=C1C(O)=O)=C(/C([H])=N\[N]S(=O)(C2=CC=CC=C2)=O)N1CC3=CC=C(C4=CC=CC=C4C5=NN=N[N]5)C=C3

> <standard_relation>
=

> <Publication_ID>
nan

> <predicted_activity_value>
6.657577319177793

> <actual_activity_value>
6.221848749616356

> <Compound>
13

> <standard_units>
nM

> hash
12524707739203029469

$$$$
13_
XXILIB    08252103443D 0   0.00000     0.00000

 39 43  0     1  0            999 V2000
    5.0189    1.4630    0.1856 Cl  0  0  0  0  0  1           0  0  0
    2.3200    3.7893   -3.5521 S   0  0  1  0  0  6           0  0  0
    1.9906    3.2432   -4.8545 O   0  0  0  0  0  2           0  0  0
    1.9271    5.1382   -3.1914 O   0  0  0  0  0  2           0  0  0
    0.7198   -2.9050   -0.1761 O   0  0  0  0  0  2           0  0  0
    2.9470   -3.3305   -0.0564 O   0  0  0  0  0  2           0  0  0
   -5.4261    1.6728    3.0899 N   0  0  0  0  0  3           0  0  0
   -5.3347    2.7677    3.8324 N   0  0  0  0  0  3           0  0  0
   -4.6867    0.7567    3.7291 N   0  0  0  0  0  3           0  0  0
   -4.5434    2.5519    4.9369 N   0  0  0  0  0  3           0  0  0
    1.4528    0.0000    0.0000 N   0  0  0  0  0  3           0  0  0
    3.5308   -0.7612    0.0805 N   0  0  0  0  0  3           0  0  0
    1.8196    2.6932   -2.3459 N   0  0  0  0  0  3           0  0  0
    1.5903    3.2644   -1.0247 N   0  0  0  0  0  3           0  0  0
    3.5434    0.6090    0.1013 C   0  0  0  0  0  4           0  0  0
    4.0709    3.6914   -3.3559 C   0  0  0  0  0  4           0  0  0
   -4.1438    1.2975    4.8626 C   0  0  0  0  0  4           0  0  0
    2.2646   -1.1179    0.0000 C   0  0  0  0  0  4           0  0  0
    2.2594    1.1266    0.0335 C   0  0  0  0  0  4           0  0  0
   -3.2917    0.5787    5.7783 C   0  0  0  0  0  4           0  0  0
   -2.0524   -0.0018    5.4071 C   0  0  0  0  0  4           0  0  0
   -1.5376   -0.0008    4.0436 C   0  0  0  0  0  4           0  0  0
   -0.5420    0.0000    1.3965 C   0  0  0  0  0  4           0  0  0
    4.7028    4.5647   -2.4694 C   0  0  0  0  0  4           0  0  0
    4.8066    2.7805   -4.1134 C   0  0  0  0  0  4           0  0  0
   -3.7278    0.4701    7.1137 C   0  0  0  0  0  4           0  0  0
   -1.2903   -0.6475    6.4047 C   0  0  0  0  0  4           0  0  0
   -1.2946    1.2044    3.3682 C   0  0  0  0  0  4           0  0  0
   -1.2694   -1.2056    3.3770 C   0  0  0  0  0  4           0  0  0
   -0.7999    1.2049    2.0610 C   0  0  0  0  0  4           0  0  0
   -0.7753   -1.2052    2.0697 C   0  0  0  0  0  4           0  0  0
    6.0893    4.5136   -2.3320 C   0  0  0  0  0  4           0  0  0
    6.1933    2.7376   -3.9692 C   0  0  0  0  0  4           0  0  0
   -2.9559   -0.1765    8.0774 C   0  0  0  0  0  4           0  0  0
   -1.7347   -0.7325    7.7238 C   0  0  0  0  0  4           0  0  0
    6.8339    3.6014   -3.0800 C   0  0  0  0  0  4           0  0  0
    1.8705   -2.4953   -0.0864 C   0  0  0  0  0  4           0  0  0
    0.0000    0.0000   -0.0000 C   0  0  0  0  0  4           0  0  0
    1.8002    2.4892   -0.0040 C   0  0  0  0  0  4           0  0  0
  1 15  1  0     0  0
  2  3  2  0     0  0
  2  4  2  0     0  0
  2 13  1  0     0  0
  2 16  1  0     0  0
  5 37  2  0     0  0
  6 37  1  0     0  0
  7  8  2  0     0  0
  7  9  1  0     0  0
  8 10  1  0     0  0
  9 17  1  0     0  0
 10 17  2  0     0  0
 11 18  1  0     0  0
 11 19  1  0     0  0
 11 38  1  0     0  0
 12 15  1  0     0  0
 12 18  2  0     0  0
 13 14  1  0     0  0
 14 39  2  0     0  0
 15 19  2  0     0  0
 16 24  2  0     0  0
 16 25  1  0     0  0
 17 20  1  0     0  0
 18 37  1  0     0  0
 19 39  1  0     0  0
 20 21  1  0     0  0
 20 26  2  0     0  0
 21 22  1  0     0  0
 21 27  2  0     0  0
 22 28  2  0     0  0
 22 29  1  0     0  0
 23 30  2  0     0  0
 23 31  1  0     0  0
 23 38  1  0     0  0
 24 32  1  0     0  0
 25 33  2  0     0  0
 26 34  1  0     0  0
 27 35  1  0     0  0
 28 30  1  0     0  0
 29 31  2  0     0  0
 32 36  2  0     0  0
 33 36  1  0     0  0
 34 35  2  0     0  0
M  END
> <standard_type>
pIC50

> <# Confs.>
25

> <canonical_smiles>
ClC(N=C1C(O)=O)=C(/C([H])=N\[N]S(=O)(C2=CC=CC=C2)=O)N1CC3=CC=C(C4=CC=CC=C4C5=NN=N[N]5)C=C3

> <standard_relation>
=

> <Publication_ID>
nan

> <predicted_activity_value>
6.657577319177793

> <actual_activity_value>
6.221848749616356

> <Compound>
13

> <standard_units>
nM

> hash
12524707739203029469

$$$$
13_
XXILIB    08252103443D 0   0.00000     0.00000

 39 43  0     1  0            999 V2000
    5.0189   -1.4630   -0.1856 Cl  0  0  0  0  0  1           0  0  0
   -1.0036   -2.8379   -2.5585 S   0  0  1  0  0  6           0  0  0
   -1.9562   -2.8174   -1.4654 O   0  0  0  0  0  2           0  0  0
   -1.2860   -2.1479   -3.8028 O   0  0  0  0  0  2           0  0  0
    0.7198    2.9050    0.1761 O   0  0  0  0  0  2           0  0  0
    2.9470    3.3305    0.0564 O   0  0  0  0  0  2           0  0  0
   -5.4261    1.6728    3.0899 N   0  0  0  0  0  3           0  0  0
   -5.3347    2.7677    3.8324 N   0  0  0  0  0  3           0  0  0
   -4.6867    0.7567    3.7291 N   0  0  0  0  0  3           0  0  0
   -4.5434    2.5519    4.9369 N   0  0  0  0  0  3           0  0  0
    1.4528    0.0000   -0.0000 N   0  0  0  0  0  3           0  0  0
    3.5308    0.7612   -0.0805 N   0  0  0  0  0  3           0  0  0
    0.5290   -2.3773   -1.9703 N   0  0  0  0  0  3           0  0  0
    1.0154   -3.1215   -0.8152 N   0  0  0  0  0  3           0  0  0
    3.5434   -0.6090   -0.1013 C   0  0  0  0  0  4           0  0  0
   -0.6878   -4.5259   -2.9641 C   0  0  0  0  0  4           0  0  0
   -4.1438    1.2975    4.8626 C   0  0  0  0  0  4           0  0  0
    2.2646    1.1179    0.0000 C   0  0  0  0  0  4           0  0  0
    2.2594   -1.1266   -0.0335 C   0  0  0  0  0  4           0  0  0
   -3.2917    0.5787    5.7783 C   0  0  0  0  0  4           0  0  0
   -2.0524   -0.0018    5.4071 C   0  0  0  0  0  4           0  0  0
   -1.5376   -0.0008    4.0436 C   0  0  0  0  0  4           0  0  0
   -0.5420    0.0000    1.3965 C   0  0  0  0  0  4           0  0  0
   -0.2343   -4.8410   -4.2459 C   0  0  0  0  0  4           0  0  0
   -0.9333   -5.5258   -2.0234 C   0  0  0  0  0  4           0  0  0
   -3.7278    0.4701    7.1137 C   0  0  0  0  0  4           0  0  0
   -1.2903   -0.6475    6.4047 C   0  0  0  0  0  4           0  0  0
   -1.2946    1.2044    3.3682 C   0  0  0  0  0  4           0  0  0
   -1.2694   -1.2056    3.3770 C   0  0  0  0  0  4           0  0  0
   -0.7999    1.2049    2.0610 C   0  0  0  0  0  4           0  0  0
   -0.7753   -1.2052    2.0697 C   0  0  0  0  0  4           0  0  0
   -0.0120   -6.1755   -4.5830 C   0  0  0  0  0  4           0  0  0
   -0.7083   -6.8579   -2.3705 C   0  0  0  0  0  4           0  0  0
   -2.9559   -0.1765    8.0774 C   0  0  0  0  0  4           0  0  0
   -1.7347   -0.7325    7.7238 C   0  0  0  0  0  4           0  0  0
   -0.2479   -7.1827   -3.6471 C   0  0  0  0  0  4           0  0  0
    1.8705    2.4953    0.0864 C   0  0  0  0  0  4           0  0  0
    0.0000    0.0000   -0.0000 C   0  0  0  0  0  4           0  0  0
    1.8002   -2.4892    0.0040 C   0  0  0  0  0  4           0  0  0
  1 15  1  0     0  0
  2  3  2  0     0  0
  2  4  2  0     0  0
  2 13  1  0     0  0
  2 16  1  0     0  0
  5 37  2  0     0  0
  6 37  1  0     0  0
  7  8  2  0     0  0
  7  9  1  0     0  0
  8 10  1  0     0  0
  9 17  1  0     0  0
 10 17  2  0     0  0
 11 18  1  0     0  0
 11 19  1  0     0  0
 11 38  1  0     0  0
 12 15  1  0     0  0
 12 18  2  0     0  0
 13 14  1  0     0  0
 14 39  2  0     0  0
 15 19  2  0     0  0
 16 24  2  0     0  0
 16 25  1  0     0  0
 17 20  1  0     0  0
 18 37  1  0     0  0
 19 39  1  0     0  0
 20 21  1  0     0  0
 20 26  2  0     0  0
 21 22  1  0     0  0
 21 27  2  0     0  0
 22 28  2  0     0  0
 22 29  1  0     0  0
 23 30  2  0     0  0
 23 31  1  0     0  0
 23 38  1  0     0  0
 24 32  1  0     0  0
 25 33  2  0     0  0
 26 34  1  0     0  0
 27 35  1  0     0  0
 28 30  1  0     0  0
 29 31  2  0     0  0
 32 36  2  0     0  0
 33 36  1  0     0  0
 34 35  2  0     0  0
M  END
> <standard_type>
pIC50

> <# Confs.>
25

> <canonical_smiles>
ClC(N=C1C(O)=O)=C(/C([H])=N\[N]S(=O)(C2=CC=CC=C2)=O)N1CC3=CC=C(C4=CC=CC=C4C5=NN=N[N]5)C=C3

> <standard_relation>
=

> <Publication_ID>
nan

> <predicted_activity_value>
6.657577319177793

> <actual_activity_value>
6.221848749616356

> <Compound>
13

> <standard_units>
nM

> hash
12524707739203029469

$$$$
13_
XXILIB    08252103443D 0   0.00000     0.00000

 39 43  0     1  0            999 V2000
    5.0189   -1.4630   -0.1856 Cl  0  0  0  0  0  1           0  0  0
    0.5408   -3.3838   -3.4835 S   0  0  1  0  0  6           0  0  0
    1.1117   -3.2134   -4.8057 O   0  0  0  0  0  2           0  0  0
    0.0438   -4.6757   -3.0500 O   0  0  0  0  0  2           0  0  0
    0.7198    2.9050    0.1761 O   0  0  0  0  0  2           0  0  0
    2.9470    3.3305    0.0564 O   0  0  0  0  0  2           0  0  0
   -5.7070    0.8494    3.0648 N   0  0  0  0  0  3           0  0  0
   -6.1837   -0.3213    3.4658 N   0  0  0  0  0  3           0  0  0
   -4.6481    1.0815    3.8517 N   0  0  0  0  0  3           0  0  0
   -5.4345   -0.8324    4.5002 N   0  0  0  0  0  3           0  0  0
    1.4528    0.0000    0.0000 N   0  0  0  0  0  3           0  0  0
    3.5308    0.7612   -0.0805 N   0  0  0  0  0  3           0  0  0
    1.6224   -2.7555   -2.3249 N   0  0  0  0  0  3           0  0  0
    1.4815   -3.2829   -0.9733 N   0  0  0  0  0  3           0  0  0
    3.5434   -0.6090   -0.1013 C   0  0  0  0  0  4           0  0  0
   -0.7907   -2.2373   -3.3216 C   0  0  0  0  0  4           0  0  0
   -4.4820    0.0490    4.7340 C   0  0  0  0  0  4           0  0  0
    2.2646    1.1179    0.0000 C   0  0  0  0  0  4           0  0  0
    2.2594   -1.1266   -0.0335 C   0  0  0  0  0  4           0  0  0
   -3.4344   -0.0133    5.7239 C   0  0  0  0  0  4           0  0  0
   -2.0524   -0.0018    5.4071 C   0  0  0  0  0  4           0  0  0
   -1.5376   -0.0008    4.0436 C   0  0  0  0  0  4           0  0  0
   -0.5420    0.0000    1.3965 C   0  0  0  0  0  4           0  0  0
   -1.8072   -2.5053   -2.4036 C   0  0  0  0  0  4           0  0  0
   -0.8382   -1.1058   -4.1354 C   0  0  0  0  0  4           0  0  0
   -3.8282   -0.0756    7.0753 C   0  0  0  0  0  4           0  0  0
   -1.1221   -0.0284    6.4686 C   0  0  0  0  0  4           0  0  0
   -1.2946    1.2044    3.3682 C   0  0  0  0  0  4           0  0  0
   -1.2694   -1.2056    3.3770 C   0  0  0  0  0  4           0  0  0
   -0.7999    1.2049    2.0610 C   0  0  0  0  0  4           0  0  0
   -0.7753   -1.2052    2.0697 C   0  0  0  0  0  4           0  0  0
   -2.8780   -1.6193   -2.2921 C   0  0  0  0  0  4           0  0  0
   -1.9139   -0.2258   -4.0167 C   0  0  0  0  0  4           0  0  0
   -2.8874   -0.1043    8.1033 C   0  0  0  0  0  4           0  0  0
   -1.5336   -0.0771    7.8002 C   0  0  0  0  0  4           0  0  0
   -2.9315   -0.4810   -3.0966 C   0  0  0  0  0  4           0  0  0
    1.8705    2.4953    0.0864 C   0  0  0  0  0  4           0  0  0
    0.0000    0.0000    0.0000 C   0  0  0  0  0  4           0  0  0
    1.8002   -2.4892    0.0040 C   0  0  0  0  0  4           0  0  0
  1 15  1  0     0  0
  2  3  2  0     0  0
  2  4  2  0     0  0
  2 13  1  0     0  0
  2 16  1  0     0  0
  5 37  2  0     0  0
  6 37  1  0     0  0
  7  8  2  0     0  0
  7  9  1  0     0  0
  8 10  1  0     0  0
  9 17  1  0     0  0
 10 17  2  0     0  0
 11 18  1  0     0  0
 11 19  1  0     0  0
 11 38  1  0     0  0
 12 15  1  0     0  0
 12 18  2  0     0  0
 13 14  1  0     0  0
 14 39  2  0     0  0
 15 19  2  0     0  0
 16 24  2  0     0  0
 16 25  1  0     0  0
 17 20  1  0     0  0
 18 37  1  0     0  0
 19 39  1  0     0  0
 20 21  1  0     0  0
 20 26  2  0     0  0
 21 22  1  0     0  0
 21 27  2  0     0  0
 22 28  2  0     0  0
 22 29  1  0     0  0
 23 30  2  0     0  0
 23 31  1  0     0  0
 23 38  1  0     0  0
 24 32  1  0     0  0
 25 33  2  0     0  0
 26 34  1  0     0  0
 27 35  1  0     0  0
 28 30  1  0     0  0
 29 31  2  0     0  0
 32 36  2  0     0  0
 33 36  1  0     0  0
 34 35  2  0     0  0
M  END
> <standard_type>
pIC50

> <# Confs.>
25

> <canonical_smiles>
ClC(N=C1C(O)=O)=C(/C([H])=N\[N]S(=O)(C2=CC=CC=C2)=O)N1CC3=CC=C(C4=CC=CC=C4C5=NN=N[N]5)C=C3

> <standard_relation>
=

> <Publication_ID>
nan

> <predicted_activity_value>
6.657577319177793

> <actual_activity_value>
6.221848749616356

> <Compound>
13

> <standard_units>
nM

> hash
12524707739203029469

$$$$
13_
XXILIB    08252103443D 0   0.00000     0.00000

 39 43  0     1  0            999 V2000
    5.0189   -1.4630   -0.1856 Cl  0  0  0  0  0  1           0  0  0
    0.5408   -3.3838   -3.4835 S   0  0  1  0  0  6           0  0  0
    1.1117   -3.2134   -4.8057 O   0  0  0  0  0  2           0  0  0
    0.0438   -4.6757   -3.0500 O   0  0  0  0  0  2           0  0  0
    0.7198    2.9050    0.1761 O   0  0  0  0  0  2           0  0  0
    2.9470    3.3305    0.0564 O   0  0  0  0  0  2           0  0  0
   -5.4261    1.6728    3.0899 N   0  0  0  0  0  3           0  0  0
   -5.3347    2.7677    3.8324 N   0  0  0  0  0  3           0  0  0
   -4.6867    0.7567    3.7291 N   0  0  0  0  0  3           0  0  0
   -4.5434    2.5519    4.9369 N   0  0  0  0  0  3           0  0  0
    1.4528    0.0000    0.0000 N   0  0  0  0  0  3           0  0  0
    3.5308    0.7612   -0.0805 N   0  0  0  0  0  3           0  0  0
    1.6224   -2.7555   -2.3249 N   0  0  0  0  0  3           0  0  0
    1.4815   -3.2829   -0.9733 N   0  0  0  0  0  3           0  0  0
    3.5434   -0.6090   -0.1013 C   0  0  0  0  0  4           0  0  0
   -0.7907   -2.2373   -3.3216 C   0  0  0  0  0  4           0  0  0
   -4.1438    1.2975    4.8626 C   0  0  0  0  0  4           0  0  0
    2.2646    1.1179    0.0000 C   0  0  0  0  0  4           0  0  0
    2.2594   -1.1266   -0.0335 C   0  0  0  0  0  4           0  0  0
   -3.2917    0.5787    5.7783 C   0  0  0  0  0  4           0  0  0
   -2.0524   -0.0018    5.4071 C   0  0  0  0  0  4           0  0  0
   -1.5376   -0.0008    4.0436 C   0  0  0  0  0  4           0  0  0
   -0.5420    0.0000    1.3965 C   0  0  0  0  0  4           0  0  0
   -1.8072   -2.5053   -2.4036 C   0  0  0  0  0  4           0  0  0
   -0.8382   -1.1058   -4.1354 C   0  0  0  0  0  4           0  0  0
   -3.7278    0.4701    7.1137 C   0  0  0  0  0  4           0  0  0
   -1.2903   -0.6475    6.4047 C   0  0  0  0  0  4           0  0  0
   -1.2946    1.2044    3.3682 C   0  0  0  0  0  4           0  0  0
   -1.2694   -1.2056    3.3770 C   0  0  0  0  0  4           0  0  0
   -0.7999    1.2049    2.0610 C   0  0  0  0  0  4           0  0  0
   -0.7753   -1.2052    2.0697 C   0  0  0  0  0  4           0  0  0
   -2.8780   -1.6193   -2.2921 C   0  0  0  0  0  4           0  0  0
   -1.9139   -0.2258   -4.0167 C   0  0  0  0  0  4           0  0  0
   -2.9559   -0.1765    8.0774 C   0  0  0  0  0  4           0  0  0
   -1.7347   -0.7325    7.7238 C   0  0  0  0  0  4           0  0  0
   -2.9315   -0.4810   -3.0966 C   0  0  0  0  0  4           0  0  0
    1.8705    2.4953    0.0864 C   0  0  0  0  0  4           0  0  0
    0.0000    0.0000   -0.0000 C   0  0  0  0  0  4           0  0  0
    1.8002   -2.4892    0.0040 C   0  0  0  0  0  4           0  0  0
  1 15  1  0     0  0
  2  3  2  0     0  0
  2  4  2  0     0  0
  2 13  1  0     0  0
  2 16  1  0     0  0
  5 37  2  0     0  0
  6 37  1  0     0  0
  7  8  2  0     0  0
  7  9  1  0     0  0
  8 10  1  0     0  0
  9 17  1  0     0  0
 10 17  2  0     0  0
 11 18  1  0     0  0
 11 19  1  0     0  0
 11 38  1  0     0  0
 12 15  1  0     0  0
 12 18  2  0     0  0
 13 14  1  0     0  0
 14 39  2  0     0  0
 15 19  2  0     0  0
 16 24  2  0     0  0
 16 25  1  0     0  0
 17 20  1  0     0  0
 18 37  1  0     0  0
 19 39  1  0     0  0
 20 21  1  0     0  0
 20 26  2  0     0  0
 21 22  1  0     0  0
 21 27  2  0     0  0
 22 28  2  0     0  0
 22 29  1  0     0  0
 23 30  2  0     0  0
 23 31  1  0     0  0
 23 38  1  0     0  0
 24 32  1  0     0  0
 25 33  2  0     0  0
 26 34  1  0     0  0
 27 35  1  0     0  0
 28 30  1  0     0  0
 29 31  2  0     0  0
 32 36  2  0     0  0
 33 36  1  0     0  0
 34 35  2  0     0  0
M  END
> <standard_type>
pIC50

> <# Confs.>
25

> <canonical_smiles>
ClC(N=C1C(O)=O)=C(/C([H])=N\[N]S(=O)(C2=CC=CC=C2)=O)N1CC3=CC=C(C4=CC=CC=C4C5=NN=N[N]5)C=C3

> <standard_relation>
=

> <Publication_ID>
nan

> <predicted_activity_value>
6.657577319177793

> <actual_activity_value>
6.221848749616356

> <Compound>
13

> <standard_units>
nM

> hash
12524707739203029469

$$$$
13_
XXILIB    08252103443D 0   0.00000     0.00000

 39 43  0     1  0            999 V2000
    5.0189   -1.4630   -0.1856 Cl  0  0  0  0  0  1           0  0  0
    0.5408   -3.3838   -3.4835 S   0  0  1  0  0  6           0  0  0
   -0.8156   -3.2438   -2.9902 O   0  0  0  0  0  2           0  0  0
    0.9021   -2.9129   -4.8071 O   0  0  0  0  0  2           0  0  0
    0.7198    2.9050    0.1761 O   0  0  0  0  0  2           0  0  0
    2.9470    3.3305    0.0564 O   0  0  0  0  0  2           0  0  0
   -5.4261    1.6728    3.0899 N   0  0  0  0  0  3           0  0  0
   -5.3347    2.7677    3.8324 N   0  0  0  0  0  3           0  0  0
   -4.6867    0.7567    3.7291 N   0  0  0  0  0  3           0  0  0
   -4.5434    2.5519    4.9369 N   0  0  0  0  0  3           0  0  0
    1.4528    0.0000    0.0000 N   0  0  0  0  0  3           0  0  0
    3.5308    0.7612   -0.0805 N   0  0  0  0  0  3           0  0  0
    1.6224   -2.7555   -2.3249 N   0  0  0  0  0  3           0  0  0
    1.4815   -3.2829   -0.9733 N   0  0  0  0  0  3           0  0  0
    3.5434   -0.6090   -0.1013 C   0  0  0  0  0  4           0  0  0
    0.9649   -5.0952   -3.4106 C   0  0  0  0  0  4           0  0  0
   -4.1438    1.2975    4.8626 C   0  0  0  0  0  4           0  0  0
    2.2646    1.1179    0.0000 C   0  0  0  0  0  4           0  0  0
    2.2594   -1.1266   -0.0335 C   0  0  0  0  0  4           0  0  0
   -3.2917    0.5787    5.7783 C   0  0  0  0  0  4           0  0  0
   -2.0524   -0.0018    5.4071 C   0  0  0  0  0  4           0  0  0
   -1.5376   -0.0008    4.0436 C   0  0  0  0  0  4           0  0  0
   -0.5420    0.0000    1.3965 C   0  0  0  0  0  4           0  0  0
    1.9636   -5.5819   -4.2551 C   0  0  0  0  0  4           0  0  0
    0.2748   -5.9474   -2.5489 C   0  0  0  0  0  4           0  0  0
   -3.7278    0.4701    7.1137 C   0  0  0  0  0  4           0  0  0
   -1.2903   -0.6475    6.4047 C   0  0  0  0  0  4           0  0  0
   -1.2946    1.2044    3.3682 C   0  0  0  0  0  4           0  0  0
   -1.2694   -1.2056    3.3770 C   0  0  0  0  0  4           0  0  0
   -0.7999    1.2049    2.0610 C   0  0  0  0  0  4           0  0  0
   -0.7753   -1.2052    2.0697 C   0  0  0  0  0  4           0  0  0
    2.2827   -6.9389   -4.2246 C   0  0  0  0  0  4           0  0  0
    0.6009   -7.3034   -2.5262 C   0  0  0  0  0  4           0  0  0
   -2.9559   -0.1765    8.0774 C   0  0  0  0  0  4           0  0  0
   -1.7347   -0.7325    7.7238 C   0  0  0  0  0  4           0  0  0
    1.6032   -7.7986   -3.3614 C   0  0  0  0  0  4           0  0  0
    1.8705    2.4953    0.0864 C   0  0  0  0  0  4           0  0  0
    0.0000    0.0000   -0.0000 C   0  0  0  0  0  4           0  0  0
    1.8002   -2.4892    0.0040 C   0  0  0  0  0  4           0  0  0
  1 15  1  0     0  0
  2  3  2  0     0  0
  2  4  2  0     0  0
  2 13  1  0     0  0
  2 16  1  0     0  0
  5 37  2  0     0  0
  6 37  1  0     0  0
  7  8  2  0     0  0
  7  9  1  0     0  0
  8 10  1  0     0  0
  9 17  1  0     0  0
 10 17  2  0     0  0
 11 18  1  0     0  0
 11 19  1  0     0  0
 11 38  1  0     0  0
 12 15  1  0     0  0
 12 18  2  0     0  0
 13 14  1  0     0  0
 14 39  2  0     0  0
 15 19  2  0     0  0
 16 24  2  0     0  0
 16 25  1  0     0  0
 17 20  1  0     0  0
 18 37  1  0     0  0
 19 39  1  0     0  0
 20 21  1  0     0  0
 20 26  2  0     0  0
 21 22  1  0     0  0
 21 27  2  0     0  0
 22 28  2  0     0  0
 22 29  1  0     0  0
 23 30  2  0     0  0
 23 31  1  0     0  0
 23 38  1  0     0  0
 24 32  1  0     0  0
 25 33  2  0     0  0
 26 34  1  0     0  0
 27 35  1  0     0  0
 28 30  1  0     0  0
 29 31  2  0     0  0
 32 36  2  0     0  0
 33 36  1  0     0  0
 34 35  2  0     0  0
M  END
> <standard_type>
pIC50

> <# Confs.>
25

> <canonical_smiles>
ClC(N=C1C(O)=O)=C(/C([H])=N\[N]S(=O)(C2=CC=CC=C2)=O)N1CC3=CC=C(C4=CC=CC=C4C5=NN=N[N]5)C=C3

> <standard_relation>
=

> <Publication_ID>
nan

> <predicted_activity_value>
6.657577319177793

> <actual_activity_value>
6.221848749616356

> <Compound>
13

> <standard_units>
nM

> hash
12524707739203029469

$$$$
13_
XXILIB    08252103443D 0   0.00000     0.00000

 39 43  0     1  0            999 V2000
    5.0189    1.4630    0.1856 Cl  0  0  0  0  0  1           0  0  0
    2.3200    3.7893   -3.5521 S   0  0  1  0  0  6           0  0  0
    3.4764    4.5229   -3.0752 O   0  0  0  0  0  2           0  0  0
    2.3392    3.1311   -4.8445 O   0  0  0  0  0  2           0  0  0
    0.7198   -2.9050   -0.1761 O   0  0  0  0  0  2           0  0  0
    2.9470   -3.3305   -0.0564 O   0  0  0  0  0  2           0  0  0
    1.9870    1.5757    5.6637 N   0  0  0  0  0  3           0  0  0
    1.6874    2.4245    6.6374 N   0  0  0  0  0  3           0  0  0
    0.8918    0.8192    5.5129 N   0  0  0  0  0  3           0  0  0
    0.4109    2.2116    7.1040 N   0  0  0  0  0  3           0  0  0
    1.4528    0.0000    0.0000 N   0  0  0  0  0  3           0  0  0
    3.5308   -0.7612    0.0805 N   0  0  0  0  0  3           0  0  0
    1.8196    2.6932   -2.3459 N   0  0  0  0  0  3           0  0  0
    1.5903    3.2644   -1.0247 N   0  0  0  0  0  3           0  0  0
    3.5434    0.6090    0.1013 C   0  0  0  0  0  4           0  0  0
    0.9461    4.8967   -3.5569 C   0  0  0  0  0  4           0  0  0
   -0.0753    1.2093    6.3986 C   0  0  0  0  0  4           0  0  0
    2.2646   -1.1179    0.0000 C   0  0  0  0  0  4           0  0  0
    2.2594    1.1266    0.0335 C   0  0  0  0  0  4           0  0  0
   -1.3780    0.5977    6.5008 C   0  0  0  0  0  4           0  0  0
   -2.0524   -0.0018    5.4071 C   0  0  0  0  0  4           0  0  0
   -1.5376   -0.0008    4.0436 C   0  0  0  0  0  4           0  0  0
   -0.5420   -0.0000    1.3965 C   0  0  0  0  0  4           0  0  0
   -0.1294    4.6377   -4.4077 C   0  0  0  0  0  4           0  0  0
    0.9657    6.0341   -2.7501 C   0  0  0  0  0  4           0  0  0
   -1.9906    0.5954    7.7696 C   0  0  0  0  0  4           0  0  0
   -3.3081   -0.6023    5.6429 C   0  0  0  0  0  4           0  0  0
   -1.2946    1.2044    3.3682 C   0  0  0  0  0  4           0  0  0
   -1.2694   -1.2056    3.3770 C   0  0  0  0  0  4           0  0  0
   -0.7999    1.2049    2.0610 C   0  0  0  0  0  4           0  0  0
   -0.7753   -1.2052    2.0697 C   0  0  0  0  0  4           0  0  0
   -1.2047    5.5248   -4.4391 C   0  0  0  0  0  4           0  0  0
   -0.1145    6.9157   -2.7891 C   0  0  0  0  0  4           0  0  0
   -3.2334   -0.0022    7.9727 C   0  0  0  0  0  4           0  0  0
   -3.8910   -0.6046    6.9097 C   0  0  0  0  0  4           0  0  0
   -1.1981    6.6618   -3.6309 C   0  0  0  0  0  4           0  0  0
    1.8705   -2.4953   -0.0864 C   0  0  0  0  0  4           0  0  0
    0.0000    0.0000    0.0000 C   0  0  0  0  0  4           0  0  0
    1.8002    2.4892   -0.0040 C   0  0  0  0  0  4           0  0  0
  1 15  1  0     0  0
  2  3  2  0     0  0
  2  4  2  0     0  0
  2 13  1  0     0  0
  2 16  1  0     0  0
  5 37  2  0     0  0
  6 37  1  0     0  0
  7  8  2  0     0  0
  7  9  1  0     0  0
  8 10  1  0     0  0
  9 17  1  0     0  0
 10 17  2  0     0  0
 11 18  1  0     0  0
 11 19  1  0     0  0
 11 38  1  0     0  0
 12 15  1  0     0  0
 12 18  2  0     0  0
 13 14  1  0     0  0
 14 39  2  0     0  0
 15 19  2  0     0  0
 16 24  2  0     0  0
 16 25  1  0     0  0
 17 20  1  0     0  0
 18 37  1  0     0  0
 19 39  1  0     0  0
 20 21  1  0     0  0
 20 26  2  0     0  0
 21 22  1  0     0  0
 21 27  2  0     0  0
 22 28  2  0     0  0
 22 29  1  0     0  0
 23 30  2  0     0  0
 23 31  1  0     0  0
 23 38  1  0     0  0
 24 32  1  0     0  0
 25 33  2  0     0  0
 26 34  1  0     0  0
 27 35  1  0     0  0
 28 30  1  0     0  0
 29 31  2  0     0  0
 32 36  2  0     0  0
 33 36  1  0     0  0
 34 35  2  0     0  0
M  END
> <standard_type>
pIC50

> <# Confs.>
25

> <canonical_smiles>
ClC(N=C1C(O)=O)=C(/C([H])=N\[N]S(=O)(C2=CC=CC=C2)=O)N1CC3=CC=C(C4=CC=CC=C4C5=NN=N[N]5)C=C3

> <standard_relation>
=

> <Publication_ID>
nan

> <predicted_activity_value>
6.657577319177793

> <actual_activity_value>
6.221848749616356

> <Compound>
13

> <standard_units>
nM

> hash
12524707739203029469

$$$$
13_
XXILIB    08252103443D 0   0.00000     0.00000

 39 43  0     1  0            999 V2000
    5.0189   -1.4630   -0.1856 Cl  0  0  0  0  0  1           0  0  0
    2.3200   -3.7893    3.5521 S   0  0  1  0  0  6           0  0  0
    3.4764   -4.5229    3.0752 O   0  0  0  0  0  2           0  0  0
    2.3392   -3.1311    4.8445 O   0  0  0  0  0  2           0  0  0
    0.7198    2.9050    0.1761 O   0  0  0  0  0  2           0  0  0
    2.9470    3.3305    0.0564 O   0  0  0  0  0  2           0  0  0
   -5.3938    1.9458    3.1046 N   0  0  0  0  0  3           0  0  0
   -6.1514    0.8980    3.3983 N   0  0  0  0  0  3           0  0  0
   -4.3314    1.8445    3.9142 N   0  0  0  0  0  3           0  0  0
   -5.5768    0.1338    4.3875 N   0  0  0  0  0  3           0  0  0
    1.4528   -0.0000   -0.0000 N   0  0  0  0  0  3           0  0  0
    3.5308    0.7612   -0.0805 N   0  0  0  0  0  3           0  0  0
    1.8196   -2.6932    2.3459 N   0  0  0  0  0  3           0  0  0
    1.5903   -3.2644    1.0247 N   0  0  0  0  0  3           0  0  0
    3.5434   -0.6090   -0.1013 C   0  0  0  0  0  4           0  0  0
    0.9461   -4.8967    3.5569 C   0  0  0  0  0  4           0  0  0
   -4.4450    0.7322    4.7028 C   0  0  0  0  0  4           0  0  0
    2.2646    1.1179   -0.0000 C   0  0  0  0  0  4           0  0  0
    2.2594   -1.1266   -0.0335 C   0  0  0  0  0  4           0  0  0
   -3.4707    0.3321    5.6887 C   0  0  0  0  0  4           0  0  0
   -2.1195    0.0316    5.3811 C   0  0  0  0  0  4           0  0  0
   -1.5841    0.0215    4.0256 C   0  0  0  0  0  4           0  0  0
   -0.5420   -0.0000    1.3965 C   0  0  0  0  0  4           0  0  0
   -0.1294   -4.6377    4.4077 C   0  0  0  0  0  4           0  0  0
    0.9657   -6.0341    2.7501 C   0  0  0  0  0  4           0  0  0
   -3.9034    0.2545    7.0273 C   0  0  0  0  0  4           0  0  0
   -1.2521   -0.3112    6.4408 C   0  0  0  0  0  4           0  0  0
   -2.1072   -0.8434    3.0528 C   0  0  0  0  0  4           0  0  0
   -0.5358    0.8797    3.6617 C   0  0  0  0  0  4           0  0  0
   -1.5942   -0.8520    1.7528 C   0  0  0  0  0  4           0  0  0
   -0.0223    0.8706    2.3619 C   0  0  0  0  0  4           0  0  0
   -1.2047   -5.5248    4.4391 C   0  0  0  0  0  4           0  0  0
   -0.1145   -6.9157    2.7891 C   0  0  0  0  0  4           0  0  0
   -3.0253   -0.0902    8.0535 C   0  0  0  0  0  4           0  0  0
   -1.6981   -0.3697    7.7608 C   0  0  0  0  0  4           0  0  0
   -1.1981   -6.6618    3.6309 C   0  0  0  0  0  4           0  0  0
    1.8705    2.4953    0.0864 C   0  0  0  0  0  4           0  0  0
    0.0000    0.0000   -0.0000 C   0  0  0  0  0  4           0  0  0
    1.8002   -2.4892    0.0040 C   0  0  0  0  0  4           0  0  0
  1 15  1  0     0  0
  2  3  2  0     0  0
  2  4  2  0     0  0
  2 13  1  0     0  0
  2 16  1  0     0  0
  5 37  2  0     0  0
  6 37  1  0     0  0
  7  8  2  0     0  0
  7  9  1  0     0  0
  8 10  1  0     0  0
  9 17  1  0     0  0
 10 17  2  0     0  0
 11 18  1  0     0  0
 11 19  1  0     0  0
 11 38  1  0     0  0
 12 15  1  0     0  0
 12 18  2  0     0  0
 13 14  1  0     0  0
 14 39  2  0     0  0
 15 19  2  0     0  0
 16 24  2  0     0  0
 16 25  1  0     0  0
 17 20  1  0     0  0
 18 37  1  0     0  0
 19 39  1  0     0  0
 20 21  1  0     0  0
 20 26  2  0     0  0
 21 22  1  0     0  0
 21 27  2  0     0  0
 22 28  2  0     0  0
 22 29  1  0     0  0
 23 30  2  0     0  0
 23 31  1  0     0  0
 23 38  1  0     0  0
 24 32  1  0     0  0
 25 33  2  0     0  0
 26 34  1  0     0  0
 27 35  1  0     0  0
 28 30  1  0     0  0
 29 31  2  0     0  0
 32 36  2  0     0  0
 33 36  1  0     0  0
 34 35  2  0     0  0
M  END
> <standard_type>
pIC50

> <# Confs.>
25

> <canonical_smiles>
ClC(N=C1C(O)=O)=C(/C([H])=N\[N]S(=O)(C2=CC=CC=C2)=O)N1CC3=CC=C(C4=CC=CC=C4C5=NN=N[N]5)C=C3

> <standard_relation>
=

> <Publication_ID>
nan

> <predicted_activity_value>
6.657577319177793

> <actual_activity_value>
6.221848749616356

> <Compound>
13

> <standard_units>
nM

> hash
12524707739203029469

$$$$
13_
XXILIB    08252103443D 0   0.00000     0.00000

 39 43  0     1  0            999 V2000
    5.0189   -1.1657    0.9033 Cl  0  0  0  0  0  1           0  0  0
    0.5408   -4.8560   -0.0705 S   0  0  1  0  0  6           0  0  0
   -0.8156   -4.4081    0.1793 O   0  0  0  0  0  2           0  0  0
    0.9021   -5.4589   -1.3394 O   0  0  0  0  0  2           0  0  0
    0.7198    2.1786   -1.9296 O   0  0  0  0  0  2           0  0  0
    2.9470    2.3949   -2.3152 O   0  0  0  0  0  2           0  0  0
   -0.2576   -3.9692    5.0958 N   0  0  0  0  0  3           0  0  0
   -1.4510   -4.4933    5.3396 N   0  0  0  0  0  3           0  0  0
   -0.3793   -2.6706    5.4007 N   0  0  0  0  0  3           0  0  0
   -2.3274   -3.5365    5.7969 N   0  0  0  0  0  3           0  0  0
    1.4528    0.0000   -0.0000 N   0  0  0  0  0  3           0  0  0
    3.5308    0.4814   -0.5951 N   0  0  0  0  0  3           0  0  0
    1.6224   -3.5924    0.3045 N   0  0  0  0  0  3           0  0  0
    1.4815   -3.0096    1.6331 N   0  0  0  0  0  3           0  0  0
    3.5434   -0.5023    0.3590 C   0  0  0  0  0  4           0  0  0
    0.9649   -6.0144    1.1912 C   0  0  0  0  0  4           0  0  0
   -1.6511   -2.4051    5.8300 C   0  0  0  0  0  4           0  0  0
    2.2646    0.7905   -0.7905 C   0  0  0  0  0  4           0  0  0
    2.2594   -0.8203    0.7729 C   0  0  0  0  0  4           0  0  0
   -2.1165   -1.1008    6.2343 C   0  0  0  0  0  4           0  0  0
   -2.1195    0.0316    5.3811 C   0  0  0  0  0  4           0  0  0
   -1.5841    0.0215    4.0256 C   0  0  0  0  0  4           0  0  0
   -0.5420    0.0000    1.3965 C   0  0  0  0  0  4           0  0  0
    1.9636   -6.9558    0.9382 C   0  0  0  0  0  4           0  0  0
    0.2748   -6.0078    2.4031 C   0  0  0  0  0  4           0  0  0
   -2.6029   -0.9699    7.5502 C   0  0  0  0  0  4           0  0  0
   -2.6369    1.2458    5.8821 C   0  0  0  0  0  4           0  0  0
   -2.1072   -0.8434    3.0528 C   0  0  0  0  0  4           0  0  0
   -0.5358    0.8797    3.6617 C   0  0  0  0  0  4           0  0  0
   -1.5942   -0.8520    1.7528 C   0  0  0  0  0  4           0  0  0
   -0.0223    0.8706    2.3619 C   0  0  0  0  0  4           0  0  0
    2.2827   -7.8937    1.9193 C   0  0  0  0  0  4           0  0  0
    0.6009   -6.9506    3.3780 C   0  0  0  0  0  4           0  0  0
   -3.1050    0.2427    8.0195 C   0  0  0  0  0  4           0  0  0
   -3.1254    1.3504    7.1841 C   0  0  0  0  0  4           0  0  0
    1.6032   -7.8913    3.1376 C   0  0  0  0  0  4           0  0  0
    1.8705    1.8255   -1.7034 C   0  0  0  0  0  4           0  0  0
    0.0000    0.0000    0.0000 C   0  0  0  0  0  4           0  0  0
    1.8002   -1.7572    1.7630 C   0  0  0  0  0  4           0  0  0
  1 15  1  0     0  0
  2  3  2  0     0  0
  2  4  2  0     0  0
  2 13  1  0     0  0
  2 16  1  0     0  0
  5 37  2  0     0  0
  6 37  1  0     0  0
  7  8  2  0     0  0
  7  9  1  0     0  0
  8 10  1  0     0  0
  9 17  1  0     0  0
 10 17  2  0     0  0
 11 18  1  0     0  0
 11 19  1  0     0  0
 11 38  1  0     0  0
 12 15  1  0     0  0
 12 18  2  0     0  0
 13 14  1  0     0  0
 14 39  2  0     0  0
 15 19  2  0     0  0
 16 24  2  0     0  0
 16 25  1  0     0  0
 17 20  1  0     0  0
 18 37  1  0     0  0
 19 39  1  0     0  0
 20 21  1  0     0  0
 20 26  2  0     0  0
 21 22  1  0     0  0
 21 27  2  0     0  0
 22 28  2  0     0  0
 22 29  1  0     0  0
 23 30  2  0     0  0
 23 31  1  0     0  0
 23 38  1  0     0  0
 24 32  1  0     0  0
 25 33  2  0     0  0
 26 34  1  0     0  0
 27 35  1  0     0  0
 28 30  1  0     0  0
 29 31  2  0     0  0
 32 36  2  0     0  0
 33 36  1  0     0  0
 34 35  2  0     0  0
M  END
> <standard_type>
pIC50

> <# Confs.>
25

> <canonical_smiles>
ClC(N=C1C(O)=O)=C(/C([H])=N\[N]S(=O)(C2=CC=CC=C2)=O)N1CC3=CC=C(C4=CC=CC=C4C5=NN=N[N]5)C=C3

> <standard_relation>
=

> <Publication_ID>
nan

> <predicted_activity_value>
6.657577319177793

> <actual_activity_value>
6.221848749616356

> <Compound>
13

> <standard_units>
nM

> hash
12524707739203029469

$$$$
13_
XXILIB    08252103443D 0   0.00000     0.00000

 39 43  0     1  0            999 V2000
    5.0189    1.4630    0.1856 Cl  0  0  0  0  0  1           0  0  0
    1.5354    3.7354   -3.6650 S   0  0  1  0  0  6           0  0  0
    1.2708    2.9402   -4.8485 O   0  0  0  0  0  2           0  0  0
    0.6351    4.8021   -3.2703 O   0  0  0  0  0  2           0  0  0
    0.7198   -2.9050   -0.1761 O   0  0  0  0  0  2           0  0  0
    2.9470   -3.3305   -0.0564 O   0  0  0  0  0  2           0  0  0
    1.9870    1.5757    5.6637 N   0  0  0  0  0  3           0  0  0
    1.6874    2.4245    6.6374 N   0  0  0  0  0  3           0  0  0
    0.8918    0.8192    5.5129 N   0  0  0  0  0  3           0  0  0
    0.4109    2.2116    7.1040 N   0  0  0  0  0  3           0  0  0
    1.4528   -0.0000   -0.0000 N   0  0  0  0  0  3           0  0  0
    3.5308   -0.7612    0.0805 N   0  0  0  0  0  3           0  0  0
    1.8196    2.6932   -2.3459 N   0  0  0  0  0  3           0  0  0
    1.5903    3.2644   -1.0247 N   0  0  0  0  0  3           0  0  0
    3.5434    0.6090    0.1013 C   0  0  0  0  0  4           0  0  0
    3.1375    4.4525   -3.8469 C   0  0  0  0  0  4           0  0  0
   -0.0753    1.2093    6.3986 C   0  0  0  0  0  4           0  0  0
    2.2646   -1.1179    0.0000 C   0  0  0  0  0  4           0  0  0
    2.2594    1.1266    0.0335 C   0  0  0  0  0  4           0  0  0
   -1.3780    0.5977    6.5008 C   0  0  0  0  0  4           0  0  0
   -2.0524   -0.0018    5.4071 C   0  0  0  0  0  4           0  0  0
   -1.5376   -0.0008    4.0436 C   0  0  0  0  0  4           0  0  0
   -0.5420   -0.0000    1.3965 C   0  0  0  0  0  4           0  0  0
    3.4406    5.6198   -3.1446 C   0  0  0  0  0  4           0  0  0
    4.0635    3.8766   -4.7163 C   0  0  0  0  0  4           0  0  0
   -1.9906    0.5954    7.7696 C   0  0  0  0  0  4           0  0  0
   -3.3081   -0.6023    5.6429 C   0  0  0  0  0  4           0  0  0
   -1.2946    1.2044    3.3682 C   0  0  0  0  0  4           0  0  0
   -1.2694   -1.2056    3.3770 C   0  0  0  0  0  4           0  0  0
   -0.7999    1.2049    2.0610 C   0  0  0  0  0  4           0  0  0
   -0.7753   -1.2052    2.0697 C   0  0  0  0  0  4           0  0  0
    4.6938    6.2089   -3.3071 C   0  0  0  0  0  4           0  0  0
    5.3143    4.4738   -4.8724 C   0  0  0  0  0  4           0  0  0
   -3.2334   -0.0022    7.9727 C   0  0  0  0  0  4           0  0  0
   -3.8910   -0.6046    6.9097 C   0  0  0  0  0  4           0  0  0
    5.6298    5.6370   -4.1690 C   0  0  0  0  0  4           0  0  0
    1.8705   -2.4953   -0.0864 C   0  0  0  0  0  4           0  0  0
    0.0000    0.0000    0.0000 C   0  0  0  0  0  4           0  0  0
    1.8002    2.4892   -0.0040 C   0  0  0  0  0  4           0  0  0
  1 15  1  0     0  0
  2  3  2  0     0  0
  2  4  2  0     0  0
  2 13  1  0     0  0
  2 16  1  0     0  0
  5 37  2  0     0  0
  6 37  1  0     0  0
  7  8  2  0     0  0
  7  9  1  0     0  0
  8 10  1  0     0  0
  9 17  1  0     0  0
 10 17  2  0     0  0
 11 18  1  0     0  0
 11 19  1  0     0  0
 11 38  1  0     0  0
 12 15  1  0     0  0
 12 18  2  0     0  0
 13 14  1  0     0  0
 14 39  2  0     0  0
 15 19  2  0     0  0
 16 24  2  0     0  0
 16 25  1  0     0  0
 17 20  1  0     0  0
 18 37  1  0     0  0
 19 39  1  0     0  0
 20 21  1  0     0  0
 20 26  2  0     0  0
 21 22  1  0     0  0
 21 27  2  0     0  0
 22 28  2  0     0  0
 22 29  1  0     0  0
 23 30  2  0     0  0
 23 31  1  0     0  0
 23 38  1  0     0  0
 24 32  1  0     0  0
 25 33  2  0     0  0
 26 34  1  0     0  0
 27 35  1  0     0  0
 28 30  1  0     0  0
 29 31  2  0     0  0
 32 36  2  0     0  0
 33 36  1  0     0  0
 34 35  2  0     0  0
M  END
> <standard_type>
pIC50

> <# Confs.>
25

> <canonical_smiles>
ClC(N=C1C(O)=O)=C(/C([H])=N\[N]S(=O)(C2=CC=CC=C2)=O)N1CC3=CC=C(C4=CC=CC=C4C5=NN=N[N]5)C=C3

> <standard_relation>
=

> <Publication_ID>
nan

> <predicted_activity_value>
6.657577319177793

> <actual_activity_value>
6.221848749616356

> <Compound>
13

> <standard_units>
nM

> hash
12524707739203029469

$$$$
13_
XXILIB    08252103443D 0   0.00000     0.00000

 39 43  0     1  0            999 V2000
    5.0189   -1.4630   -0.1856 Cl  0  0  0  0  0  1           0  0  0
    0.5408   -3.3838   -3.4835 S   0  0  1  0  0  6           0  0  0
   -0.8156   -3.2438   -2.9902 O   0  0  0  0  0  2           0  0  0
    0.9021   -2.9129   -4.8071 O   0  0  0  0  0  2           0  0  0
    0.7198    2.9050    0.1761 O   0  0  0  0  0  2           0  0  0
    2.9470    3.3305    0.0564 O   0  0  0  0  0  2           0  0  0
   -5.7070    0.8494    3.0648 N   0  0  0  0  0  3           0  0  0
   -6.1837   -0.3213    3.4658 N   0  0  0  0  0  3           0  0  0
   -4.6481    1.0815    3.8517 N   0  0  0  0  0  3           0  0  0
   -5.4345   -0.8324    4.5002 N   0  0  0  0  0  3           0  0  0
    1.4528    0.0000    0.0000 N   0  0  0  0  0  3           0  0  0
    3.5308    0.7612   -0.0805 N   0  0  0  0  0  3           0  0  0
    1.6224   -2.7555   -2.3249 N   0  0  0  0  0  3           0  0  0
    1.4815   -3.2829   -0.9733 N   0  0  0  0  0  3           0  0  0
    3.5434   -0.6090   -0.1013 C   0  0  0  0  0  4           0  0  0
    0.9649   -5.0952   -3.4106 C   0  0  0  0  0  4           0  0  0
   -4.4820    0.0490    4.7340 C   0  0  0  0  0  4           0  0  0
    2.2646    1.1179    0.0000 C   0  0  0  0  0  4           0  0  0
    2.2594   -1.1266   -0.0335 C   0  0  0  0  0  4           0  0  0
   -3.4344   -0.0133    5.7239 C   0  0  0  0  0  4           0  0  0
   -2.0524   -0.0018    5.4071 C   0  0  0  0  0  4           0  0  0
   -1.5376   -0.0008    4.0436 C   0  0  0  0  0  4           0  0  0
   -0.5420    0.0000    1.3965 C   0  0  0  0  0  4           0  0  0
    1.9636   -5.5819   -4.2551 C   0  0  0  0  0  4           0  0  0
    0.2748   -5.9474   -2.5489 C   0  0  0  0  0  4           0  0  0
   -3.8282   -0.0756    7.0753 C   0  0  0  0  0  4           0  0  0
   -1.1221   -0.0284    6.4686 C   0  0  0  0  0  4           0  0  0
   -1.2946    1.2044    3.3682 C   0  0  0  0  0  4           0  0  0
   -1.2694   -1.2056    3.3770 C   0  0  0  0  0  4           0  0  0
   -0.7999    1.2049    2.0610 C   0  0  0  0  0  4           0  0  0
   -0.7753   -1.2052    2.0697 C   0  0  0  0  0  4           0  0  0
    2.2827   -6.9389   -4.2246 C   0  0  0  0  0  4           0  0  0
    0.6009   -7.3034   -2.5262 C   0  0  0  0  0  4           0  0  0
   -2.8874   -0.1043    8.1033 C   0  0  0  0  0  4           0  0  0
   -1.5336   -0.0771    7.8002 C   0  0  0  0  0  4           0  0  0
    1.6032   -7.7986   -3.3614 C   0  0  0  0  0  4           0  0  0
    1.8705    2.4953    0.0864 C   0  0  0  0  0  4           0  0  0
    0.0000    0.0000    0.0000 C   0  0  0  0  0  4           0  0  0
    1.8002   -2.4892    0.0040 C   0  0  0  0  0  4           0  0  0
  1 15  1  0     0  0
  2  3  2  0     0  0
  2  4  2  0     0  0
  2 13  1  0     0  0
  2 16  1  0     0  0
  5 37  2  0     0  0
  6 37  1  0     0  0
  7  8  2  0     0  0
  7  9  1  0     0  0
  8 10  1  0     0  0
  9 17  1  0     0  0
 10 17  2  0     0  0
 11 18  1  0     0  0
 11 19  1  0     0  0
 11 38  1  0     0  0
 12 15  1  0     0  0
 12 18  2  0     0  0
 13 14  1  0     0  0
 14 39  2  0     0  0
 15 19  2  0     0  0
 16 24  2  0     0  0
 16 25  1  0     0  0
 17 20  1  0     0  0
 18 37  1  0     0  0
 19 39  1  0     0  0
 20 21  1  0     0  0
 20 26  2  0     0  0
 21 22  1  0     0  0
 21 27  2  0     0  0
 22 28  2  0     0  0
 22 29  1  0     0  0
 23 30  2  0     0  0
 23 31  1  0     0  0
 23 38  1  0     0  0
 24 32  1  0     0  0
 25 33  2  0     0  0
 26 34  1  0     0  0
 27 35  1  0     0  0
 28 30  1  0     0  0
 29 31  2  0     0  0
 32 36  2  0     0  0
 33 36  1  0     0  0
 34 35  2  0     0  0
M  END
> <standard_type>
pIC50

> <# Confs.>
25

> <canonical_smiles>
ClC(N=C1C(O)=O)=C(/C([H])=N\[N]S(=O)(C2=CC=CC=C2)=O)N1CC3=CC=C(C4=CC=CC=C4C5=NN=N[N]5)C=C3

> <standard_relation>
=

> <Publication_ID>
nan

> <predicted_activity_value>
6.657577319177793

> <actual_activity_value>
6.221848749616356

> <Compound>
13

> <standard_units>
nM

> hash
12524707739203029469

$$$$
13_
XXILIB    08252103443D 0   0.00000     0.00000

 39 43  0     1  0            999 V2000
    5.0189   -1.4630   -0.1856 Cl  0  0  0  0  0  1           0  0  0
   -1.0036   -2.8379   -2.5585 S   0  0  1  0  0  6           0  0  0
   -1.9562   -2.8174   -1.4654 O   0  0  0  0  0  2           0  0  0
   -1.2860   -2.1479   -3.8028 O   0  0  0  0  0  2           0  0  0
    0.7198    2.9050    0.1761 O   0  0  0  0  0  2           0  0  0
    2.9470    3.3305    0.0564 O   0  0  0  0  0  2           0  0  0
   -3.5672   -3.9051    3.8134 N   0  0  0  0  0  3           0  0  0
   -2.7886   -4.5052    4.7034 N   0  0  0  0  0  3           0  0  0
   -3.6068   -2.6218    4.1954 N   0  0  0  0  0  3           0  0  0
   -2.3346   -3.6116    5.6458 N   0  0  0  0  0  3           0  0  0
    1.4528    0.0000   -0.0000 N   0  0  0  0  0  3           0  0  0
    3.5308    0.7612   -0.0805 N   0  0  0  0  0  3           0  0  0
    0.5290   -2.3773   -1.9703 N   0  0  0  0  0  3           0  0  0
    1.0154   -3.1215   -0.8152 N   0  0  0  0  0  3           0  0  0
    3.5434   -0.6090   -0.1013 C   0  0  0  0  0  4           0  0  0
   -0.6878   -4.5259   -2.9641 C   0  0  0  0  0  4           0  0  0
   -2.8507   -2.4424    5.3215 C   0  0  0  0  0  4           0  0  0
    2.2646    1.1179    0.0000 C   0  0  0  0  0  4           0  0  0
    2.2594   -1.1266   -0.0335 C   0  0  0  0  0  4           0  0  0
   -2.6827   -1.1774    5.9945 C   0  0  0  0  0  4           0  0  0
   -2.1219   -0.0291    5.3802 C   0  0  0  0  0  4           0  0  0
   -1.5851   -0.0203    4.0252 C   0  0  0  0  0  4           0  0  0
   -0.5420    0.0000    1.3965 C   0  0  0  0  0  4           0  0  0
   -0.2343   -4.8410   -4.2459 C   0  0  0  0  0  4           0  0  0
   -0.9333   -5.5258   -2.0234 C   0  0  0  0  0  4           0  0  0
   -3.1185   -1.0965    7.3319 C   0  0  0  0  0  4           0  0  0
   -2.0462    1.1630    6.1326 C   0  0  0  0  0  4           0  0  0
   -0.5193   -0.8600    3.6691 C   0  0  0  0  0  4           0  0  0
   -2.1253    0.8253    3.0448 C   0  0  0  0  0  4           0  0  0
   -0.0056   -0.8520    2.3693 C   0  0  0  0  0  4           0  0  0
   -1.6112    0.8337    1.7453 C   0  0  0  0  0  4           0  0  0
   -0.0120   -6.1755   -4.5830 C   0  0  0  0  0  4           0  0  0
   -0.7083   -6.8579   -2.3705 C   0  0  0  0  0  4           0  0  0
   -3.0283    0.0934    8.0523 C   0  0  0  0  0  4           0  0  0
   -2.4952    1.2248    7.4514 C   0  0  0  0  0  4           0  0  0
   -0.2479   -7.1827   -3.6471 C   0  0  0  0  0  4           0  0  0
    1.8705    2.4953    0.0864 C   0  0  0  0  0  4           0  0  0
    0.0000    0.0000    0.0000 C   0  0  0  0  0  4           0  0  0
    1.8002   -2.4892    0.0040 C   0  0  0  0  0  4           0  0  0
  1 15  1  0     0  0
  2  3  2  0     0  0
  2  4  2  0     0  0
  2 13  1  0     0  0
  2 16  1  0     0  0
  5 37  2  0     0  0
  6 37  1  0     0  0
  7  8  2  0     0  0
  7  9  1  0     0  0
  8 10  1  0     0  0
  9 17  1  0     0  0
 10 17  2  0     0  0
 11 18  1  0     0  0
 11 19  1  0     0  0
 11 38  1  0     0  0
 12 15  1  0     0  0
 12 18  2  0     0  0
 13 14  1  0     0  0
 14 39  2  0     0  0
 15 19  2  0     0  0
 16 24  2  0     0  0
 16 25  1  0     0  0
 17 20  1  0     0  0
 18 37  1  0     0  0
 19 39  1  0     0  0
 20 21  1  0     0  0
 20 26  2  0     0  0
 21 22  1  0     0  0
 21 27  2  0     0  0
 22 28  2  0     0  0
 22 29  1  0     0  0
 23 30  2  0     0  0
 23 31  1  0     0  0
 23 38  1  0     0  0
 24 32  1  0     0  0
 25 33  2  0     0  0
 26 34  1  0     0  0
 27 35  1  0     0  0
 28 30  1  0     0  0
 29 31  2  0     0  0
 32 36  2  0     0  0
 33 36  1  0     0  0
 34 35  2  0     0  0
M  END
> <standard_type>
pIC50

> <# Confs.>
25

> <canonical_smiles>
ClC(N=C1C(O)=O)=C(/C([H])=N\[N]S(=O)(C2=CC=CC=C2)=O)N1CC3=CC=C(C4=CC=CC=C4C5=NN=N[N]5)C=C3

> <standard_relation>
=

> <Publication_ID>
nan

> <predicted_activity_value>
6.657577319177793

> <actual_activity_value>
6.221848749616356

> <Compound>
13

> <standard_units>
nM

> hash
12524707739203029469

$$$$
13_
XXILIB    08252103443D 0   0.00000     0.00000

 39 43  0     1  0            999 V2000
    5.0189   -1.1657    0.9033 Cl  0  0  0  0  0  1           0  0  0
    0.5408   -4.8560   -0.0705 S   0  0  1  0  0  6           0  0  0
   -0.8156   -4.4081    0.1793 O   0  0  0  0  0  2           0  0  0
    0.9021   -5.4589   -1.3394 O   0  0  0  0  0  2           0  0  0
    0.7198    2.1786   -1.9296 O   0  0  0  0  0  2           0  0  0
    2.9470    2.3949   -2.3152 O   0  0  0  0  0  2           0  0  0
   -5.3938    1.9458    3.1046 N   0  0  0  0  0  3           0  0  0
   -6.1514    0.8980    3.3983 N   0  0  0  0  0  3           0  0  0
   -4.3314    1.8445    3.9142 N   0  0  0  0  0  3           0  0  0
   -5.5768    0.1338    4.3875 N   0  0  0  0  0  3           0  0  0
    1.4528    0.0000   -0.0000 N   0  0  0  0  0  3           0  0  0
    3.5308    0.4814   -0.5951 N   0  0  0  0  0  3           0  0  0
    1.6224   -3.5924    0.3045 N   0  0  0  0  0  3           0  0  0
    1.4815   -3.0096    1.6331 N   0  0  0  0  0  3           0  0  0
    3.5434   -0.5023    0.3590 C   0  0  0  0  0  4           0  0  0
    0.9649   -6.0144    1.1912 C   0  0  0  0  0  4           0  0  0
   -4.4450    0.7322    4.7028 C   0  0  0  0  0  4           0  0  0
    2.2646    0.7905   -0.7905 C   0  0  0  0  0  4           0  0  0
    2.2594   -0.8203    0.7729 C   0  0  0  0  0  4           0  0  0
   -3.4707    0.3321    5.6887 C   0  0  0  0  0  4           0  0  0
   -2.1195    0.0316    5.3811 C   0  0  0  0  0  4           0  0  0
   -1.5841    0.0215    4.0256 C   0  0  0  0  0  4           0  0  0
   -0.5420   -0.0000    1.3965 C   0  0  0  0  0  4           0  0  0
    1.9636   -6.9558    0.9382 C   0  0  0  0  0  4           0  0  0
    0.2748   -6.0078    2.4031 C   0  0  0  0  0  4           0  0  0
   -3.9034    0.2545    7.0273 C   0  0  0  0  0  4           0  0  0
   -1.2521   -0.3112    6.4408 C   0  0  0  0  0  4           0  0  0
   -2.1072   -0.8434    3.0528 C   0  0  0  0  0  4           0  0  0
   -0.5358    0.8797    3.6617 C   0  0  0  0  0  4           0  0  0
   -1.5942   -0.8520    1.7528 C   0  0  0  0  0  4           0  0  0
   -0.0223    0.8706    2.3619 C   0  0  0  0  0  4           0  0  0
    2.2827   -7.8937    1.9193 C   0  0  0  0  0  4           0  0  0
    0.6009   -6.9506    3.3780 C   0  0  0  0  0  4           0  0  0
   -3.0253   -0.0902    8.0535 C   0  0  0  0  0  4           0  0  0
   -1.6981   -0.3697    7.7608 C   0  0  0  0  0  4           0  0  0
    1.6032   -7.8913    3.1376 C   0  0  0  0  0  4           0  0  0
    1.8705    1.8255   -1.7034 C   0  0  0  0  0  4           0  0  0
    0.0000    0.0000   -0.0000 C   0  0  0  0  0  4           0  0  0
    1.8002   -1.7572    1.7630 C   0  0  0  0  0  4           0  0  0
  1 15  1  0     0  0
  2  3  2  0     0  0
  2  4  2  0     0  0
  2 13  1  0     0  0
  2 16  1  0     0  0
  5 37  2  0     0  0
  6 37  1  0     0  0
  7  8  2  0     0  0
  7  9  1  0     0  0
  8 10  1  0     0  0
  9 17  1  0     0  0
 10 17  2  0     0  0
 11 18  1  0     0  0
 11 19  1  0     0  0
 11 38  1  0     0  0
 12 15  1  0     0  0
 12 18  2  0     0  0
 13 14  1  0     0  0
 14 39  2  0     0  0
 15 19  2  0     0  0
 16 24  2  0     0  0
 16 25  1  0     0  0
 17 20  1  0     0  0
 18 37  1  0     0  0
 19 39  1  0     0  0
 20 21  1  0     0  0
 20 26  2  0     0  0
 21 22  1  0     0  0
 21 27  2  0     0  0
 22 28  2  0     0  0
 22 29  1  0     0  0
 23 30  2  0     0  0
 23 31  1  0     0  0
 23 38  1  0     0  0
 24 32  1  0     0  0
 25 33  2  0     0  0
 26 34  1  0     0  0
 27 35  1  0     0  0
 28 30  1  0     0  0
 29 31  2  0     0  0
 32 36  2  0     0  0
 33 36  1  0     0  0
 34 35  2  0     0  0
M  END
> <standard_type>
pIC50

> <# Confs.>
25

> <canonical_smiles>
ClC(N=C1C(O)=O)=C(/C([H])=N\[N]S(=O)(C2=CC=CC=C2)=O)N1CC3=CC=C(C4=CC=CC=C4C5=NN=N[N]5)C=C3

> <standard_relation>
=

> <Publication_ID>
nan

> <predicted_activity_value>
6.657577319177793

> <actual_activity_value>
6.221848749616356

> <Compound>
13

> <standard_units>
nM

> hash
12524707739203029469

$$$$
13_
XXILIB    08252103443D 0   0.00000     0.00000

 39 43  0     1  0            999 V2000
    5.0189    1.4630    0.1856 Cl  0  0  0  0  0  1           0  0  0
    0.8583    3.3243   -3.6047 S   0  0  1  0  0  6           0  0  0
    0.7859    2.3521   -4.6783 O   0  0  0  0  0  2           0  0  0
   -0.3468    3.9192   -3.0590 O   0  0  0  0  0  2           0  0  0
    0.7198   -2.9050   -0.1761 O   0  0  0  0  0  2           0  0  0
    2.9470   -3.3305   -0.0564 O   0  0  0  0  0  2           0  0  0
    1.9870    1.5757    5.6637 N   0  0  0  0  0  3           0  0  0
    1.6874    2.4245    6.6374 N   0  0  0  0  0  3           0  0  0
    0.8918    0.8192    5.5129 N   0  0  0  0  0  3           0  0  0
    0.4109    2.2116    7.1040 N   0  0  0  0  0  3           0  0  0
    1.4528    0.0000   -0.0000 N   0  0  0  0  0  3           0  0  0
    3.5308   -0.7612    0.0805 N   0  0  0  0  0  3           0  0  0
    1.8196    2.6932   -2.3459 N   0  0  0  0  0  3           0  0  0
    1.5903    3.2644   -1.0247 N   0  0  0  0  0  3           0  0  0
    3.5434    0.6090    0.1013 C   0  0  0  0  0  4           0  0  0
    1.8879    4.6499   -4.1491 C   0  0  0  0  0  4           0  0  0
   -0.0753    1.2093    6.3986 C   0  0  0  0  0  4           0  0  0
    2.2646   -1.1179   -0.0000 C   0  0  0  0  0  4           0  0  0
    2.2594    1.1266    0.0335 C   0  0  0  0  0  4           0  0  0
   -1.3780    0.5977    6.5008 C   0  0  0  0  0  4           0  0  0
   -2.0524   -0.0018    5.4071 C   0  0  0  0  0  4           0  0  0
   -1.5376   -0.0008    4.0436 C   0  0  0  0  0  4           0  0  0
   -0.5420   -0.0000    1.3965 C   0  0  0  0  0  4           0  0  0
    1.7369    5.9084   -3.5651 C   0  0  0  0  0  4           0  0  0
    2.8049    4.4416   -5.1790 C   0  0  0  0  0  4           0  0  0
   -1.9906    0.5954    7.7696 C   0  0  0  0  0  4           0  0  0
   -3.3081   -0.6023    5.6429 C   0  0  0  0  0  4           0  0  0
   -1.2946    1.2044    3.3682 C   0  0  0  0  0  4           0  0  0
   -1.2694   -1.2056    3.3770 C   0  0  0  0  0  4           0  0  0
   -0.7999    1.2049    2.0610 C   0  0  0  0  0  4           0  0  0
   -0.7753   -1.2052    2.0697 C   0  0  0  0  0  4           0  0  0
    2.5258    6.9678   -4.0115 C   0  0  0  0  0  4           0  0  0
    3.5891    5.5079   -5.6190 C   0  0  0  0  0  4           0  0  0
   -3.2334   -0.0022    7.9727 C   0  0  0  0  0  4           0  0  0
   -3.8910   -0.6046    6.9097 C   0  0  0  0  0  4           0  0  0
    3.4510    6.7684   -5.0364 C   0  0  0  0  0  4           0  0  0
    1.8705   -2.4953   -0.0864 C   0  0  0  0  0  4           0  0  0
    0.0000    0.0000    0.0000 C   0  0  0  0  0  4           0  0  0
    1.8002    2.4892   -0.0040 C   0  0  0  0  0  4           0  0  0
  1 15  1  0     0  0
  2  3  2  0     0  0
  2  4  2  0     0  0
  2 13  1  0     0  0
  2 16  1  0     0  0
  5 37  2  0     0  0
  6 37  1  0     0  0
  7  8  2  0     0  0
  7  9  1  0     0  0
  8 10  1  0     0  0
  9 17  1  0     0  0
 10 17  2  0     0  0
 11 18  1  0     0  0
 11 19  1  0     0  0
 11 38  1  0     0  0
 12 15  1  0     0  0
 12 18  2  0     0  0
 13 14  1  0     0  0
 14 39  2  0     0  0
 15 19  2  0     0  0
 16 24  2  0     0  0
 16 25  1  0     0  0
 17 20  1  0     0  0
 18 37  1  0     0  0
 19 39  1  0     0  0
 20 21  1  0     0  0
 20 26  2  0     0  0
 21 22  1  0     0  0
 21 27  2  0     0  0
 22 28  2  0     0  0
 22 29  1  0     0  0
 23 30  2  0     0  0
 23 31  1  0     0  0
 23 38  1  0     0  0
 24 32  1  0     0  0
 25 33  2  0     0  0
 26 34  1  0     0  0
 27 35  1  0     0  0
 28 30  1  0     0  0
 29 31  2  0     0  0
 32 36  2  0     0  0
 33 36  1  0     0  0
 34 35  2  0     0  0
M  END
> <standard_type>
pIC50

> <# Confs.>
25

> <canonical_smiles>
ClC(N=C1C(O)=O)=C(/C([H])=N\[N]S(=O)(C2=CC=CC=C2)=O)N1CC3=CC=C(C4=CC=CC=C4C5=NN=N[N]5)C=C3

> <standard_relation>
=

> <Publication_ID>
nan

> <predicted_activity_value>
6.657577319177793

> <actual_activity_value>
6.221848749616356

> <Compound>
13

> <standard_units>
nM

> hash
12524707739203029469

$$$$
13_
XXILIB    08252103443D 0   0.00000     0.00000

 39 43  0     1  0            999 V2000
    5.0189    1.4630    0.1856 Cl  0  0  0  0  0  1           0  0  0
    1.9850    3.9008    3.5347 S   0  0  1  0  0  6           0  0  0
    1.0138    4.9761    3.4754 O   0  0  0  0  0  2           0  0  0
    2.2715    3.2269    4.7868 O   0  0  0  0  0  2           0  0  0
    0.7198   -2.9050   -0.1761 O   0  0  0  0  0  2           0  0  0
    2.9470   -3.3305   -0.0564 O   0  0  0  0  0  2           0  0  0
    2.2960    0.5365    6.0046 N   0  0  0  0  0  3           0  0  0
    2.2932   -0.5864    6.7099 N   0  0  0  0  0  3           0  0  0
    1.0050    0.8707    5.8781 N   0  0  0  0  0  3           0  0  0
    1.0104   -0.9656    7.0312 N   0  0  0  0  0  3           0  0  0
    1.4528   -0.0000   -0.0000 N   0  0  0  0  0  3           0  0  0
    3.5308   -0.7612    0.0805 N   0  0  0  0  0  3           0  0  0
    1.6224    2.7555    2.3249 N   0  0  0  0  0  3           0  0  0
    1.4815    3.2829    0.9733 N   0  0  0  0  0  3           0  0  0
    3.5434    0.6090    0.1013 C   0  0  0  0  0  4           0  0  0
    3.5172    4.5267    2.9227 C   0  0  0  0  0  4           0  0  0
    0.2158   -0.0529    6.5076 C   0  0  0  0  0  4           0  0  0
    2.2646   -1.1179   -0.0000 C   0  0  0  0  0  4           0  0  0
    2.2594    1.1266    0.0335 C   0  0  0  0  0  4           0  0  0
   -1.2246    0.0086    6.5583 C   0  0  0  0  0  4           0  0  0
   -2.0524   -0.0018    5.4071 C   0  0  0  0  0  4           0  0  0
   -1.5376   -0.0008    4.0436 C   0  0  0  0  0  4           0  0  0
   -0.5420   -0.0000    1.3965 C   0  0  0  0  0  4           0  0  0
    4.7061    3.9115    3.3174 C   0  0  0  0  0  4           0  0  0
    3.5298    5.6472    2.0924 C   0  0  0  0  0  4           0  0  0
   -1.8223    0.0690    7.8328 C   0  0  0  0  0  4           0  0  0
   -3.4521    0.0238    5.5889 C   0  0  0  0  0  4           0  0  0
   -1.2946    1.2044    3.3682 C   0  0  0  0  0  4           0  0  0
   -1.2694   -1.2056    3.3770 C   0  0  0  0  0  4           0  0  0
   -0.7999    1.2049    2.0610 C   0  0  0  0  0  4           0  0  0
   -0.7753   -1.2052    2.0697 C   0  0  0  0  0  4           0  0  0
    5.9220    4.4196    2.8622 C   0  0  0  0  0  4           0  0  0
    4.7514    6.1482    1.6428 C   0  0  0  0  0  4           0  0  0
   -3.2078    0.0968    7.9825 C   0  0  0  0  0  4           0  0  0
   -4.0234    0.0706    6.8602 C   0  0  0  0  0  4           0  0  0
    5.9453    5.5358    2.0257 C   0  0  0  0  0  4           0  0  0
    1.8705   -2.4953   -0.0864 C   0  0  0  0  0  4           0  0  0
    0.0000    0.0000    0.0000 C   0  0  0  0  0  4           0  0  0
    1.8002    2.4892   -0.0040 C   0  0  0  0  0  4           0  0  0
  1 15  1  0     0  0
  2  3  2  0     0  0
  2  4  2  0     0  0
  2 13  1  0     0  0
  2 16  1  0     0  0
  5 37  2  0     0  0
  6 37  1  0     0  0
  7  8  2  0     0  0
  7  9  1  0     0  0
  8 10  1  0     0  0
  9 17  1  0     0  0
 10 17  2  0     0  0
 11 18  1  0     0  0
 11 19  1  0     0  0
 11 38  1  0     0  0
 12 15  1  0     0  0
 12 18  2  0     0  0
 13 14  1  0     0  0
 14 39  2  0     0  0
 15 19  2  0     0  0
 16 24  2  0     0  0
 16 25  1  0     0  0
 17 20  1  0     0  0
 18 37  1  0     0  0
 19 39  1  0     0  0
 20 21  1  0     0  0
 20 26  2  0     0  0
 21 22  1  0     0  0
 21 27  2  0     0  0
 22 28  2  0     0  0
 22 29  1  0     0  0
 23 30  2  0     0  0
 23 31  1  0     0  0
 23 38  1  0     0  0
 24 32  1  0     0  0
 25 33  2  0     0  0
 26 34  1  0     0  0
 27 35  1  0     0  0
 28 30  1  0     0  0
 29 31  2  0     0  0
 32 36  2  0     0  0
 33 36  1  0     0  0
 34 35  2  0     0  0
M  END
> <standard_type>
pIC50

> <# Confs.>
25

> <canonical_smiles>
ClC(N=C1C(O)=O)=C(/C([H])=N\[N]S(=O)(C2=CC=CC=C2)=O)N1CC3=CC=C(C4=CC=CC=C4C5=NN=N[N]5)C=C3

> <standard_relation>
=

> <Publication_ID>
nan

> <predicted_activity_value>
6.657577319177793

> <actual_activity_value>
6.221848749616356

> <Compound>
13

> <standard_units>
nM

> hash
12524707739203029469

$$$$
13_
XXILIB    08252103443D 0   0.00000     0.00000

 39 43  0     1  0            999 V2000
    5.0189   -1.4630   -0.1856 Cl  0  0  0  0  0  1           0  0  0
    0.5408   -3.3838   -3.4835 S   0  0  1  0  0  6           0  0  0
    1.1117   -3.2134   -4.8057 O   0  0  0  0  0  2           0  0  0
    0.0438   -4.6757   -3.0500 O   0  0  0  0  0  2           0  0  0
    0.7198    2.9050    0.1761 O   0  0  0  0  0  2           0  0  0
    2.9470    3.3305    0.0564 O   0  0  0  0  0  2           0  0  0
   -5.7104   -0.5388    2.9810 N   0  0  0  0  0  3           0  0  0
   -6.1749    0.5832    3.5135 N   0  0  0  0  0  3           0  0  0
   -4.6577   -0.8734    3.7388 N   0  0  0  0  0  3           0  0  0
   -5.4248    0.9614    4.6029 N   0  0  0  0  0  3           0  0  0
    1.4528    0.0000    0.0000 N   0  0  0  0  0  3           0  0  0
    3.5308    0.7612   -0.0805 N   0  0  0  0  0  3           0  0  0
    1.6224   -2.7555   -2.3249 N   0  0  0  0  0  3           0  0  0
    1.4815   -3.2829   -0.9733 N   0  0  0  0  0  3           0  0  0
    3.5434   -0.6090   -0.1013 C   0  0  0  0  0  4           0  0  0
   -0.7907   -2.2373   -3.3216 C   0  0  0  0  0  4           0  0  0
   -4.4820    0.0490    4.7340 C   0  0  0  0  0  4           0  0  0
    2.2646    1.1179    0.0000 C   0  0  0  0  0  4           0  0  0
    2.2594   -1.1266   -0.0335 C   0  0  0  0  0  4           0  0  0
   -3.4344   -0.0133    5.7239 C   0  0  0  0  0  4           0  0  0
   -2.0524   -0.0018    5.4071 C   0  0  0  0  0  4           0  0  0
   -1.5376   -0.0008    4.0436 C   0  0  0  0  0  4           0  0  0
   -0.5420    0.0000    1.3965 C   0  0  0  0  0  4           0  0  0
   -1.8072   -2.5053   -2.4036 C   0  0  0  0  0  4           0  0  0
   -0.8382   -1.1058   -4.1354 C   0  0  0  0  0  4           0  0  0
   -3.8282   -0.0756    7.0753 C   0  0  0  0  0  4           0  0  0
   -1.1221   -0.0284    6.4686 C   0  0  0  0  0  4           0  0  0
   -1.2946    1.2044    3.3682 C   0  0  0  0  0  4           0  0  0
   -1.2694   -1.2056    3.3770 C   0  0  0  0  0  4           0  0  0
   -0.7999    1.2049    2.0610 C   0  0  0  0  0  4           0  0  0
   -0.7753   -1.2052    2.0697 C   0  0  0  0  0  4           0  0  0
   -2.8780   -1.6193   -2.2921 C   0  0  0  0  0  4           0  0  0
   -1.9139   -0.2258   -4.0167 C   0  0  0  0  0  4           0  0  0
   -2.8874   -0.1043    8.1033 C   0  0  0  0  0  4           0  0  0
   -1.5336   -0.0771    7.8002 C   0  0  0  0  0  4           0  0  0
   -2.9315   -0.4810   -3.0966 C   0  0  0  0  0  4           0  0  0
    1.8705    2.4953    0.0864 C   0  0  0  0  0  4           0  0  0
    0.0000    0.0000    0.0000 C   0  0  0  0  0  4           0  0  0
    1.8002   -2.4892    0.0040 C   0  0  0  0  0  4           0  0  0
  1 15  1  0     0  0
  2  3  2  0     0  0
  2  4  2  0     0  0
  2 13  1  0     0  0
  2 16  1  0     0  0
  5 37  2  0     0  0
  6 37  1  0     0  0
  7  8  2  0     0  0
  7  9  1  0     0  0
  8 10  1  0     0  0
  9 17  1  0     0  0
 10 17  2  0     0  0
 11 18  1  0     0  0
 11 19  1  0     0  0
 11 38  1  0     0  0
 12 15  1  0     0  0
 12 18  2  0     0  0
 13 14  1  0     0  0
 14 39  2  0     0  0
 15 19  2  0     0  0
 16 24  2  0     0  0
 16 25  1  0     0  0
 17 20  1  0     0  0
 18 37  1  0     0  0
 19 39  1  0     0  0
 20 21  1  0     0  0
 20 26  2  0     0  0
 21 22  1  0     0  0
 21 27  2  0     0  0
 22 28  2  0     0  0
 22 29  1  0     0  0
 23 30  2  0     0  0
 23 31  1  0     0  0
 23 38  1  0     0  0
 24 32  1  0     0  0
 25 33  2  0     0  0
 26 34  1  0     0  0
 27 35  1  0     0  0
 28 30  1  0     0  0
 29 31  2  0     0  0
 32 36  2  0     0  0
 33 36  1  0     0  0
 34 35  2  0     0  0
M  END
> <standard_type>
pIC50

> <# Confs.>
25

> <canonical_smiles>
ClC(N=C1C(O)=O)=C(/C([H])=N\[N]S(=O)(C2=CC=CC=C2)=O)N1CC3=CC=C(C4=CC=CC=C4C5=NN=N[N]5)C=C3

> <standard_relation>
=

> <Publication_ID>
nan

> <predicted_activity_value>
6.657577319177793

> <actual_activity_value>
6.221848749616356

> <Compound>
13

> <standard_units>
nM

> hash
12524707739203029469

$$$$
17_
XXILIB    08252103443D 0   0.00000     0.00000

 22 23  0     1  0            999 V2000
   -3.5518   -0.1073   -1.4900 Cl  0  0  0  0  0  1           0  0  0
    4.5592    5.6923   -0.5148 O   0  0  0  0  0  2           0  0  0
    2.6820    6.2879    0.6085 O   0  0  0  0  0  2           0  0  0
   -0.2116    1.3061   -2.9423 O   0  0  0  0  0  2           0  0  0
    0.0000   -0.0000    0.0000 N   0  0  0  0  0  3           0  0  0
   -2.0849   -0.0328    0.7655 N   0  0  0  0  0  3           0  0  0
   -2.0962   -0.0559   -0.6046 C   0  0  0  0  0  4           0  0  0
   -0.8144    0.0000    1.1153 C   0  0  0  0  0  4           0  0  0
   -0.8123   -0.0350   -1.1156 C   0  0  0  0  0  4           0  0  0
    2.9775    4.0056   -0.0002 C   0  0  0  0  0  4           0  0  0
    1.9917    1.3969    0.0000 C   0  0  0  0  0  4           0  0  0
    2.7420    3.3645   -1.2151 C   0  0  0  0  0  4           0  0  0
    2.7165    3.3742    1.2147 C   0  0  0  0  0  4           0  0  0
    2.2487    2.0596   -1.2106 C   0  0  0  0  0  4           0  0  0
    2.2236    2.0693    1.2104 C   0  0  0  0  0  4           0  0  0
    3.4921    5.3903   -0.0005 C   0  0  0  0  0  4           0  0  0
   -0.3240   -0.0435   -2.5111 C   0  0  0  0  0  4           0  0  0
    1.4499    0.0000    0.0000 C   0  0  0  0  0  4           0  0  0
   -0.3238    0.0391    2.5195 C   0  0  0  0  0  4           0  0  0
   -1.0625   -0.9680    3.3935 C   0  0  0  0  0  4           0  0  0
   -0.9223   -2.4227    2.9434 C   0  0  0  0  0  4           0  0  0
   -1.6727   -3.3963    3.8397 C   0  0  0  0  0  4           0  0  0
  1  7  1  0     0  0
  2 16  2  0     0  0
  3 16  1  0     0  0
  4 17  1  0     0  0
  5  8  1  0     0  0
  5  9  1  0     0  0
  5 18  1  0     0  0
  6  7  1  0     0  0
  6  8  2  0     0  0
  7  9  2  0     0  0
  8 19  1  0     0  0
  9 17  1  0     0  0
 10 12  2  0     0  0
 10 13  1  0     0  0
 10 16  1  0     0  0
 11 14  2  0     0  0
 11 15  1  0     0  0
 11 18  1  0     0  0
 12 14  1  0     0  0
 13 15  2  0     0  0
 19 20  1  0     0  0
 20 21  1  0     0  0
 21 22  1  0     0  0
M  END
> <standard_type>
pIC50

> <# Confs.>
25

> <canonical_smiles>
ClC(N=C1CCCC)=C(CO)N1CC2=CC=C(C(O)=O)C=C2

> <standard_relation>
=

> <Publication_ID>
nan

> <predicted_activity_value>
6.853871964321762

> <actual_activity_value>
5.769551078621726

> <Compound>
17

> <standard_units>
nM

> hash
15330608199569978610

$$$$
17_
XXILIB    08252103443D 0   0.00000     0.00000

 22 23  0     1  0            999 V2000
   -3.5518   -0.1073   -1.4900 Cl  0  0  0  0  0  1           0  0  0
    4.5592    5.6923   -0.5148 O   0  0  0  0  0  2           0  0  0
    2.6820    6.2879    0.6085 O   0  0  0  0  0  2           0  0  0
   -0.2116    1.3061   -2.9423 O   0  0  0  0  0  2           0  0  0
    0.0000   -0.0000    0.0000 N   0  0  0  0  0  3           0  0  0
   -2.0849   -0.0328    0.7655 N   0  0  0  0  0  3           0  0  0
   -2.0962   -0.0559   -0.6046 C   0  0  0  0  0  4           0  0  0
   -0.8144    0.0000    1.1153 C   0  0  0  0  0  4           0  0  0
   -0.8123   -0.0350   -1.1156 C   0  0  0  0  0  4           0  0  0
    2.9775    4.0056   -0.0002 C   0  0  0  0  0  4           0  0  0
    1.9917    1.3969    0.0000 C   0  0  0  0  0  4           0  0  0
    2.7420    3.3645   -1.2151 C   0  0  0  0  0  4           0  0  0
    2.7165    3.3742    1.2147 C   0  0  0  0  0  4           0  0  0
    2.2487    2.0596   -1.2106 C   0  0  0  0  0  4           0  0  0
    2.2236    2.0693    1.2104 C   0  0  0  0  0  4           0  0  0
    3.4921    5.3903   -0.0005 C   0  0  0  0  0  4           0  0  0
   -0.3240   -0.0435   -2.5111 C   0  0  0  0  0  4           0  0  0
    1.4499    0.0000    0.0000 C   0  0  0  0  0  4           0  0  0
   -0.3238    0.0391    2.5195 C   0  0  0  0  0  4           0  0  0
   -1.0625   -0.9680    3.3935 C   0  0  0  0  0  4           0  0  0
   -0.6145   -0.9893    4.8554 C   0  0  0  0  0  4           0  0  0
   -1.3741   -2.0059    5.6943 C   0  0  0  0  0  4           0  0  0
  1  7  1  0     0  0
  2 16  2  0     0  0
  3 16  1  0     0  0
  4 17  1  0     0  0
  5  8  1  0     0  0
  5  9  1  0     0  0
  5 18  1  0     0  0
  6  7  1  0     0  0
  6  8  2  0     0  0
  7  9  2  0     0  0
  8 19  1  0     0  0
  9 17  1  0     0  0
 10 12  2  0     0  0
 10 13  1  0     0  0
 10 16  1  0     0  0
 11 14  2  0     0  0
 11 15  1  0     0  0
 11 18  1  0     0  0
 12 14  1  0     0  0
 13 15  2  0     0  0
 19 20  1  0     0  0
 20 21  1  0     0  0
 21 22  1  0     0  0
M  END
> <standard_type>
pIC50

> <# Confs.>
25

> <canonical_smiles>
ClC(N=C1CCCC)=C(CO)N1CC2=CC=C(C(O)=O)C=C2

> <standard_relation>
=

> <Publication_ID>
nan

> <predicted_activity_value>
6.853871964321762

> <actual_activity_value>
5.769551078621726

> <Compound>
17

> <standard_units>
nM

> hash
15330608199569978610

$$$$
17_
XXILIB    08252103443D 0   0.00000     0.00000

 22 23  0     1  0            999 V2000
   -3.5518   -0.1073   -1.4900 Cl  0  0  0  0  0  1           0  0  0
    4.2553   -5.8102   -0.8407 O   0  0  0  0  0  2           0  0  0
    3.1633   -6.1012    1.1248 O   0  0  0  0  0  2           0  0  0
   -0.2116    1.3061   -2.9423 O   0  0  0  0  0  2           0  0  0
   -0.0000    0.0000    0.0000 N   0  0  0  0  0  3           0  0  0
   -2.0849   -0.0328    0.7655 N   0  0  0  0  0  3           0  0  0
   -2.0962   -0.0559   -0.6046 C   0  0  0  0  0  4           0  0  0
   -0.8144    0.0000    1.1153 C   0  0  0  0  0  4           0  0  0
   -0.8123   -0.0350   -1.1156 C   0  0  0  0  0  4           0  0  0
    3.0002   -3.9968    0.0241 C   0  0  0  0  0  4           0  0  0
    1.9917   -1.3969    0.0000 C   0  0  0  0  0  4           0  0  0
    3.8859   -2.9209    0.0118 C   0  0  0  0  0  4           0  0  0
    1.6204   -3.7993    0.0391 C   0  0  0  0  0  4           0  0  0
    3.3774   -1.6219    0.0000 C   0  0  0  0  0  4           0  0  0
    1.1201   -2.4972    0.0269 C   0  0  0  0  0  4           0  0  0
    3.5345   -5.3739    0.0450 C   0  0  0  0  0  4           0  0  0
   -0.3240   -0.0435   -2.5111 C   0  0  0  0  0  4           0  0  0
    1.4499    0.0000   -0.0000 C   0  0  0  0  0  4           0  0  0
   -0.3238    0.0391    2.5195 C   0  0  0  0  0  4           0  0  0
   -0.1775    1.4728    3.0164 C   0  0  0  0  0  4           0  0  0
    0.3237    1.5981    4.4556 C   0  0  0  0  0  4           0  0  0
    0.4564    3.0426    4.9142 C   0  0  0  0  0  4           0  0  0
  1  7  1  0     0  0
  2 16  2  0     0  0
  3 16  1  0     0  0
  4 17  1  0     0  0
  5  8  1  0     0  0
  5  9  1  0     0  0
  5 18  1  0     0  0
  6  7  1  0     0  0
  6  8  2  0     0  0
  7  9  2  0     0  0
  8 19  1  0     0  0
  9 17  1  0     0  0
 10 12  2  0     0  0
 10 13  1  0     0  0
 10 16  1  0     0  0
 11 14  2  0     0  0
 11 15  1  0     0  0
 11 18  1  0     0  0
 12 14  1  0     0  0
 13 15  2  0     0  0
 19 20  1  0     0  0
 20 21  1  0     0  0
 21 22  1  0     0  0
M  END
> <standard_type>
pIC50

> <# Confs.>
25

> <canonical_smiles>
ClC(N=C1CCCC)=C(CO)N1CC2=CC=C(C(O)=O)C=C2

> <standard_relation>
=

> <Publication_ID>
nan

> <predicted_activity_value>
6.853871964321762

> <actual_activity_value>
5.769551078621726

> <Compound>
17

> <standard_units>
nM

> hash
15330608199569978610

$$$$
17_
XXILIB    08252103443D 0   0.00000     0.00000

 22 23  0     1  0            999 V2000
   -3.5518   -0.1073   -1.4900 Cl  0  0  0  0  0  1           0  0  0
    4.2497   -5.7852    0.9470 O   0  0  0  0  0  2           0  0  0
    3.1605   -6.1347   -1.0105 O   0  0  0  0  0  2           0  0  0
   -0.2116    1.3061   -2.9423 O   0  0  0  0  0  2           0  0  0
   -0.0000    0.0000    0.0000 N   0  0  0  0  0  3           0  0  0
   -2.0849   -0.0328    0.7655 N   0  0  0  0  0  3           0  0  0
   -2.0962   -0.0559   -0.6046 C   0  0  0  0  0  4           0  0  0
   -0.8144    0.0000    1.1153 C   0  0  0  0  0  4           0  0  0
   -0.8123   -0.0350   -1.1156 C   0  0  0  0  0  4           0  0  0
    3.0002   -3.9968    0.0241 C   0  0  0  0  0  4           0  0  0
    1.9917   -1.3969    0.0000 C   0  0  0  0  0  4           0  0  0
    3.8859   -2.9209    0.0118 C   0  0  0  0  0  4           0  0  0
    1.6204   -3.7993    0.0391 C   0  0  0  0  0  4           0  0  0
    3.3774   -1.6219    0.0000 C   0  0  0  0  0  4           0  0  0
    1.1201   -2.4972    0.0269 C   0  0  0  0  0  4           0  0  0
    3.5345   -5.3739    0.0450 C   0  0  0  0  0  4           0  0  0
   -0.3240   -0.0435   -2.5111 C   0  0  0  0  0  4           0  0  0
    1.4499    0.0000   -0.0000 C   0  0  0  0  0  4           0  0  0
   -0.3238    0.0391    2.5195 C   0  0  0  0  0  4           0  0  0
   -0.1775    1.4728    3.0164 C   0  0  0  0  0  4           0  0  0
    0.3237    1.5981    4.4556 C   0  0  0  0  0  4           0  0  0
    0.4564    3.0426    4.9142 C   0  0  0  0  0  4           0  0  0
  1  7  1  0     0  0
  2 16  2  0     0  0
  3 16  1  0     0  0
  4 17  1  0     0  0
  5  8  1  0     0  0
  5  9  1  0     0  0
  5 18  1  0     0  0
  6  7  1  0     0  0
  6  8  2  0     0  0
  7  9  2  0     0  0
  8 19  1  0     0  0
  9 17  1  0     0  0
 10 12  2  0     0  0
 10 13  1  0     0  0
 10 16  1  0     0  0
 11 14  2  0     0  0
 11 15  1  0     0  0
 11 18  1  0     0  0
 12 14  1  0     0  0
 13 15  2  0     0  0
 19 20  1  0     0  0
 20 21  1  0     0  0
 21 22  1  0     0  0
M  END
> <standard_type>
pIC50

> <# Confs.>
25

> <canonical_smiles>
ClC(N=C1CCCC)=C(CO)N1CC2=CC=C(C(O)=O)C=C2

> <standard_relation>
=

> <Publication_ID>
nan

> <predicted_activity_value>
6.853871964321762

> <actual_activity_value>
5.769551078621726

> <Compound>
17

> <standard_units>
nM

> hash
15330608199569978610

$$$$
17_
XXILIB    08252103443D 0   0.00000     0.00000

 22 23  0     1  0            999 V2000
   -3.5518   -0.1073   -1.4900 Cl  0  0  0  0  0  1           0  0  0
    3.2347    6.1848    0.8923 O   0  0  0  0  0  2           0  0  0
    4.2715    5.6969   -1.0641 O   0  0  0  0  0  2           0  0  0
   -0.2116    1.3061   -2.9423 O   0  0  0  0  0  2           0  0  0
    0.0000   -0.0000    0.0000 N   0  0  0  0  0  3           0  0  0
   -2.0849   -0.0328    0.7655 N   0  0  0  0  0  3           0  0  0
   -2.0962   -0.0559   -0.6046 C   0  0  0  0  0  4           0  0  0
   -0.8144    0.0000    1.1153 C   0  0  0  0  0  4           0  0  0
   -0.8123   -0.0350   -1.1156 C   0  0  0  0  0  4           0  0  0
    2.9775    4.0056   -0.0002 C   0  0  0  0  0  4           0  0  0
    1.9917    1.3969    0.0000 C   0  0  0  0  0  4           0  0  0
    2.7420    3.3645   -1.2151 C   0  0  0  0  0  4           0  0  0
    2.7165    3.3742    1.2147 C   0  0  0  0  0  4           0  0  0
    2.2487    2.0596   -1.2106 C   0  0  0  0  0  4           0  0  0
    2.2236    2.0693    1.2104 C   0  0  0  0  0  4           0  0  0
    3.4921    5.3903   -0.0005 C   0  0  0  0  0  4           0  0  0
   -0.3240   -0.0435   -2.5111 C   0  0  0  0  0  4           0  0  0
    1.4499    0.0000    0.0000 C   0  0  0  0  0  4           0  0  0
   -0.3238    0.0391    2.5195 C   0  0  0  0  0  4           0  0  0
   -1.0625   -0.9680    3.3935 C   0  0  0  0  0  4           0  0  0
   -0.9223   -2.4227    2.9434 C   0  0  0  0  0  4           0  0  0
   -1.6727   -3.3963    3.8397 C   0  0  0  0  0  4           0  0  0
  1  7  1  0     0  0
  2 16  2  0     0  0
  3 16  1  0     0  0
  4 17  1  0     0  0
  5  8  1  0     0  0
  5  9  1  0     0  0
  5 18  1  0     0  0
  6  7  1  0     0  0
  6  8  2  0     0  0
  7  9  2  0     0  0
  8 19  1  0     0  0
  9 17  1  0     0  0
 10 12  2  0     0  0
 10 13  1  0     0  0
 10 16  1  0     0  0
 11 14  2  0     0  0
 11 15  1  0     0  0
 11 18  1  0     0  0
 12 14  1  0     0  0
 13 15  2  0     0  0
 19 20  1  0     0  0
 20 21  1  0     0  0
 21 22  1  0     0  0
M  END
> <standard_type>
pIC50

> <# Confs.>
25

> <canonical_smiles>
ClC(N=C1CCCC)=C(CO)N1CC2=CC=C(C(O)=O)C=C2

> <standard_relation>
=

> <Publication_ID>
nan

> <predicted_activity_value>
6.853871964321762

> <actual_activity_value>
5.769551078621726

> <Compound>
17

> <standard_units>
nM

> hash
15330608199569978610

$$$$
17_
XXILIB    08252103443D 0   0.00000     0.00000

 22 23  0     1  0            999 V2000
   -3.5518   -0.1073   -1.4900 Cl  0  0  0  0  0  1           0  0  0
    4.2553   -5.8102   -0.8407 O   0  0  0  0  0  2           0  0  0
    3.1633   -6.1012    1.1248 O   0  0  0  0  0  2           0  0  0
   -0.2116    1.3061   -2.9423 O   0  0  0  0  0  2           0  0  0
   -0.0000    0.0000    0.0000 N   0  0  0  0  0  3           0  0  0
   -2.0849   -0.0328    0.7655 N   0  0  0  0  0  3           0  0  0
   -2.0962   -0.0559   -0.6046 C   0  0  0  0  0  4           0  0  0
   -0.8144    0.0000    1.1153 C   0  0  0  0  0  4           0  0  0
   -0.8123   -0.0350   -1.1156 C   0  0  0  0  0  4           0  0  0
    3.0002   -3.9968    0.0241 C   0  0  0  0  0  4           0  0  0
    1.9917   -1.3969    0.0000 C   0  0  0  0  0  4           0  0  0
    3.8859   -2.9209    0.0118 C   0  0  0  0  0  4           0  0  0
    1.6204   -3.7993    0.0391 C   0  0  0  0  0  4           0  0  0
    3.3774   -1.6219    0.0000 C   0  0  0  0  0  4           0  0  0
    1.1201   -2.4972    0.0269 C   0  0  0  0  0  4           0  0  0
    3.5345   -5.3739    0.0450 C   0  0  0  0  0  4           0  0  0
   -0.3240   -0.0435   -2.5111 C   0  0  0  0  0  4           0  0  0
    1.4499    0.0000   -0.0000 C   0  0  0  0  0  4           0  0  0
   -0.3238    0.0391    2.5195 C   0  0  0  0  0  4           0  0  0
   -0.1775    1.4728    3.0164 C   0  0  0  0  0  4           0  0  0
   -1.4735    2.2843    3.0050 C   0  0  0  0  0  4           0  0  0
   -1.2868    3.7081    3.5072 C   0  0  0  0  0  4           0  0  0
  1  7  1  0     0  0
  2 16  2  0     0  0
  3 16  1  0     0  0
  4 17  1  0     0  0
  5  8  1  0     0  0
  5  9  1  0     0  0
  5 18  1  0     0  0
  6  7  1  0     0  0
  6  8  2  0     0  0
  7  9  2  0     0  0
  8 19  1  0     0  0
  9 17  1  0     0  0
 10 12  2  0     0  0
 10 13  1  0     0  0
 10 16  1  0     0  0
 11 14  2  0     0  0
 11 15  1  0     0  0
 11 18  1  0     0  0
 12 14  1  0     0  0
 13 15  2  0     0  0
 19 20  1  0     0  0
 20 21  1  0     0  0
 21 22  1  0     0  0
M  END
> <standard_type>
pIC50

> <# Confs.>
25

> <canonical_smiles>
ClC(N=C1CCCC)=C(CO)N1CC2=CC=C(C(O)=O)C=C2

> <standard_relation>
=

> <Publication_ID>
nan

> <predicted_activity_value>
6.853871964321762

> <actual_activity_value>
5.769551078621726

> <Compound>
17

> <standard_units>
nM

> hash
15330608199569978610

$$$$
17_
XXILIB    08252103443D 0   0.00000     0.00000

 22 23  0     1  0            999 V2000
   -3.5518   -0.1073   -1.4900 Cl  0  0  0  0  0  1           0  0  0
    4.2023    5.8252    0.8945 O   0  0  0  0  0  2           0  0  0
    3.1158    6.1263   -1.0726 O   0  0  0  0  0  2           0  0  0
   -0.2116    1.3061   -2.9423 O   0  0  0  0  0  2           0  0  0
    0.0000   -0.0000    0.0000 N   0  0  0  0  0  3           0  0  0
   -2.0849   -0.0328    0.7655 N   0  0  0  0  0  3           0  0  0
   -2.0962   -0.0559   -0.6046 C   0  0  0  0  0  4           0  0  0
   -0.8144    0.0000    1.1153 C   0  0  0  0  0  4           0  0  0
   -0.8123   -0.0350   -1.1156 C   0  0  0  0  0  4           0  0  0
    2.9775    4.0056   -0.0002 C   0  0  0  0  0  4           0  0  0
    1.9917    1.3969    0.0000 C   0  0  0  0  0  4           0  0  0
    2.7420    3.3645   -1.2151 C   0  0  0  0  0  4           0  0  0
    2.7165    3.3742    1.2147 C   0  0  0  0  0  4           0  0  0
    2.2487    2.0596   -1.2106 C   0  0  0  0  0  4           0  0  0
    2.2236    2.0693    1.2104 C   0  0  0  0  0  4           0  0  0
    3.4921    5.3903   -0.0005 C   0  0  0  0  0  4           0  0  0
   -0.3240   -0.0435   -2.5111 C   0  0  0  0  0  4           0  0  0
    1.4499    0.0000    0.0000 C   0  0  0  0  0  4           0  0  0
   -0.3238    0.0391    2.5195 C   0  0  0  0  0  4           0  0  0
   -1.0625   -0.9680    3.3935 C   0  0  0  0  0  4           0  0  0
   -0.9223   -2.4227    2.9434 C   0  0  0  0  0  4           0  0  0
    0.5211   -2.9030    2.9288 C   0  0  0  0  0  4           0  0  0
  1  7  1  0     0  0
  2 16  2  0     0  0
  3 16  1  0     0  0
  4 17  1  0     0  0
  5  8  1  0     0  0
  5  9  1  0     0  0
  5 18  1  0     0  0
  6  7  1  0     0  0
  6  8  2  0     0  0
  7  9  2  0     0  0
  8 19  1  0     0  0
  9 17  1  0     0  0
 10 12  2  0     0  0
 10 13  1  0     0  0
 10 16  1  0     0  0
 11 14  2  0     0  0
 11 15  1  0     0  0
 11 18  1  0     0  0
 12 14  1  0     0  0
 13 15  2  0     0  0
 19 20  1  0     0  0
 20 21  1  0     0  0
 21 22  1  0     0  0
M  END
> <standard_type>
pIC50

> <# Confs.>
25

> <canonical_smiles>
ClC(N=C1CCCC)=C(CO)N1CC2=CC=C(C(O)=O)C=C2

> <standard_relation>
=

> <Publication_ID>
nan

> <predicted_activity_value>
6.853871964321762

> <actual_activity_value>
5.769551078621726

> <Compound>
17

> <standard_units>
nM

> hash
15330608199569978610

$$$$
17_
XXILIB    08252103443D 0   0.00000     0.00000

 22 23  0     1  0            999 V2000
   -3.5518   -0.1073   -1.4900 Cl  0  0  0  0  0  1           0  0  0
    4.2553    5.8102    0.8407 O   0  0  0  0  0  2           0  0  0
    3.1633    6.1012   -1.1248 O   0  0  0  0  0  2           0  0  0
   -0.2116    1.3061   -2.9423 O   0  0  0  0  0  2           0  0  0
    0.0000    0.0000    0.0000 N   0  0  0  0  0  3           0  0  0
   -2.0849   -0.0328    0.7655 N   0  0  0  0  0  3           0  0  0
   -2.0962   -0.0559   -0.6046 C   0  0  0  0  0  4           0  0  0
   -0.8144    0.0000    1.1153 C   0  0  0  0  0  4           0  0  0
   -0.8123   -0.0350   -1.1156 C   0  0  0  0  0  4           0  0  0
    3.0002    3.9968   -0.0241 C   0  0  0  0  0  4           0  0  0
    1.9917    1.3969    0.0000 C   0  0  0  0  0  4           0  0  0
    3.8859    2.9209   -0.0118 C   0  0  0  0  0  4           0  0  0
    1.6204    3.7993   -0.0391 C   0  0  0  0  0  4           0  0  0
    3.3774    1.6219    0.0000 C   0  0  0  0  0  4           0  0  0
    1.1201    2.4972   -0.0269 C   0  0  0  0  0  4           0  0  0
    3.5345    5.3739   -0.0450 C   0  0  0  0  0  4           0  0  0
   -0.3240   -0.0435   -2.5111 C   0  0  0  0  0  4           0  0  0
    1.4499   -0.0000    0.0000 C   0  0  0  0  0  4           0  0  0
   -0.3238    0.0391    2.5195 C   0  0  0  0  0  4           0  0  0
   -0.1043   -1.3655    3.0698 C   0  0  0  0  0  4           0  0  0
    0.4013   -1.4106    4.5123 C   0  0  0  0  0  4           0  0  0
    0.6078   -2.8280    5.0247 C   0  0  0  0  0  4           0  0  0
  1  7  1  0     0  0
  2 16  2  0     0  0
  3 16  1  0     0  0
  4 17  1  0     0  0
  5  8  1  0     0  0
  5  9  1  0     0  0
  5 18  1  0     0  0
  6  7  1  0     0  0
  6  8  2  0     0  0
  7  9  2  0     0  0
  8 19  1  0     0  0
  9 17  1  0     0  0
 10 12  2  0     0  0
 10 13  1  0     0  0
 10 16  1  0     0  0
 11 14  2  0     0  0
 11 15  1  0     0  0
 11 18  1  0     0  0
 12 14  1  0     0  0
 13 15  2  0     0  0
 19 20  1  0     0  0
 20 21  1  0     0  0
 21 22  1  0     0  0
M  END
> <standard_type>
pIC50

> <# Confs.>
25

> <canonical_smiles>
ClC(N=C1CCCC)=C(CO)N1CC2=CC=C(C(O)=O)C=C2

> <standard_relation>
=

> <Publication_ID>
nan

> <predicted_activity_value>
6.853871964321762

> <actual_activity_value>
5.769551078621726

> <Compound>
17

> <standard_units>
nM

> hash
15330608199569978610

$$$$
17_
XXILIB    08252103443D 0   0.00000     0.00000

 22 23  0     1  0            999 V2000
   -3.5518   -0.1073   -1.4900 Cl  0  0  0  0  0  1           0  0  0
    3.2347    6.1848    0.8923 O   0  0  0  0  0  2           0  0  0
    4.2715    5.6969   -1.0641 O   0  0  0  0  0  2           0  0  0
   -0.2116    1.3061   -2.9423 O   0  0  0  0  0  2           0  0  0
    0.0000   -0.0000    0.0000 N   0  0  0  0  0  3           0  0  0
   -2.0849   -0.0328    0.7655 N   0  0  0  0  0  3           0  0  0
   -2.0962   -0.0559   -0.6046 C   0  0  0  0  0  4           0  0  0
   -0.8144    0.0000    1.1153 C   0  0  0  0  0  4           0  0  0
   -0.8123   -0.0350   -1.1156 C   0  0  0  0  0  4           0  0  0
    2.9775    4.0056   -0.0002 C   0  0  0  0  0  4           0  0  0
    1.9917    1.3969    0.0000 C   0  0  0  0  0  4           0  0  0
    2.7420    3.3645   -1.2151 C   0  0  0  0  0  4           0  0  0
    2.7165    3.3742    1.2147 C   0  0  0  0  0  4           0  0  0
    2.2487    2.0596   -1.2106 C   0  0  0  0  0  4           0  0  0
    2.2236    2.0693    1.2104 C   0  0  0  0  0  4           0  0  0
    3.4921    5.3903   -0.0005 C   0  0  0  0  0  4           0  0  0
   -0.3240   -0.0435   -2.5111 C   0  0  0  0  0  4           0  0  0
    1.4499    0.0000    0.0000 C   0  0  0  0  0  4           0  0  0
   -0.3238    0.0391    2.5195 C   0  0  0  0  0  4           0  0  0
   -1.0625   -0.9680    3.3935 C   0  0  0  0  0  4           0  0  0
   -0.6145   -0.9893    4.8554 C   0  0  0  0  0  4           0  0  0
   -1.3741   -2.0059    5.6943 C   0  0  0  0  0  4           0  0  0
  1  7  1  0     0  0
  2 16  2  0     0  0
  3 16  1  0     0  0
  4 17  1  0     0  0
  5  8  1  0     0  0
  5  9  1  0     0  0
  5 18  1  0     0  0
  6  7  1  0     0  0
  6  8  2  0     0  0
  7  9  2  0     0  0
  8 19  1  0     0  0
  9 17  1  0     0  0
 10 12  2  0     0  0
 10 13  1  0     0  0
 10 16  1  0     0  0
 11 14  2  0     0  0
 11 15  1  0     0  0
 11 18  1  0     0  0
 12 14  1  0     0  0
 13 15  2  0     0  0
 19 20  1  0     0  0
 20 21  1  0     0  0
 21 22  1  0     0  0
M  END
> <standard_type>
pIC50

> <# Confs.>
25

> <canonical_smiles>
ClC(N=C1CCCC)=C(CO)N1CC2=CC=C(C(O)=O)C=C2

> <standard_relation>
=

> <Publication_ID>
nan

> <predicted_activity_value>
6.853871964321762

> <actual_activity_value>
5.769551078621726

> <Compound>
17

> <standard_units>
nM

> hash
15330608199569978610

$$$$
17_
XXILIB    08252103443D 0   0.00000     0.00000

 22 23  0     1  0            999 V2000
   -3.5518   -0.1073   -1.4900 Cl  0  0  0  0  0  1           0  0  0
    4.2497   -5.7852    0.9470 O   0  0  0  0  0  2           0  0  0
    3.1605   -6.1347   -1.0105 O   0  0  0  0  0  2           0  0  0
   -0.2116    1.3061   -2.9423 O   0  0  0  0  0  2           0  0  0
   -0.0000    0.0000    0.0000 N   0  0  0  0  0  3           0  0  0
   -2.0849   -0.0328    0.7655 N   0  0  0  0  0  3           0  0  0
   -2.0962   -0.0559   -0.6046 C   0  0  0  0  0  4           0  0  0
   -0.8144    0.0000    1.1153 C   0  0  0  0  0  4           0  0  0
   -0.8123   -0.0350   -1.1156 C   0  0  0  0  0  4           0  0  0
    3.0002   -3.9968    0.0241 C   0  0  0  0  0  4           0  0  0
    1.9917   -1.3969    0.0000 C   0  0  0  0  0  4           0  0  0
    3.8859   -2.9209    0.0118 C   0  0  0  0  0  4           0  0  0
    1.6204   -3.7993    0.0391 C   0  0  0  0  0  4           0  0  0
    3.3774   -1.6219    0.0000 C   0  0  0  0  0  4           0  0  0
    1.1201   -2.4972    0.0269 C   0  0  0  0  0  4           0  0  0
    3.5345   -5.3739    0.0450 C   0  0  0  0  0  4           0  0  0
   -0.3240   -0.0435   -2.5111 C   0  0  0  0  0  4           0  0  0
    1.4499    0.0000   -0.0000 C   0  0  0  0  0  4           0  0  0
   -0.3238    0.0391    2.5195 C   0  0  0  0  0  4           0  0  0
   -0.1775    1.4728    3.0164 C   0  0  0  0  0  4           0  0  0
   -1.4735    2.2843    3.0050 C   0  0  0  0  0  4           0  0  0
   -1.2868    3.7081    3.5072 C   0  0  0  0  0  4           0  0  0
  1  7  1  0     0  0
  2 16  2  0     0  0
  3 16  1  0     0  0
  4 17  1  0     0  0
  5  8  1  0     0  0
  5  9  1  0     0  0
  5 18  1  0     0  0
  6  7  1  0     0  0
  6  8  2  0     0  0
  7  9  2  0     0  0
  8 19  1  0     0  0
  9 17  1  0     0  0
 10 12  2  0     0  0
 10 13  1  0     0  0
 10 16  1  0     0  0
 11 14  2  0     0  0
 11 15  1  0     0  0
 11 18  1  0     0  0
 12 14  1  0     0  0
 13 15  2  0     0  0
 19 20  1  0     0  0
 20 21  1  0     0  0
 21 22  1  0     0  0
M  END
> <standard_type>
pIC50

> <# Confs.>
25

> <canonical_smiles>
ClC(N=C1CCCC)=C(CO)N1CC2=CC=C(C(O)=O)C=C2

> <standard_relation>
=

> <Publication_ID>
nan

> <predicted_activity_value>
6.853871964321762

> <actual_activity_value>
5.769551078621726

> <Compound>
17

> <standard_units>
nM

> hash
15330608199569978610

$$$$
17_
XXILIB    08252103443D 0   0.00000     0.00000

 22 23  0     1  0            999 V2000
   -3.5518   -0.1073   -1.4900 Cl  0  0  0  0  0  1           0  0  0
    4.2023    5.8252    0.8945 O   0  0  0  0  0  2           0  0  0
    3.1158    6.1263   -1.0726 O   0  0  0  0  0  2           0  0  0
   -0.2116    1.3061   -2.9423 O   0  0  0  0  0  2           0  0  0
    0.0000   -0.0000    0.0000 N   0  0  0  0  0  3           0  0  0
   -2.0849   -0.0328    0.7655 N   0  0  0  0  0  3           0  0  0
   -2.0962   -0.0559   -0.6046 C   0  0  0  0  0  4           0  0  0
   -0.8144    0.0000    1.1153 C   0  0  0  0  0  4           0  0  0
   -0.8123   -0.0350   -1.1156 C   0  0  0  0  0  4           0  0  0
    2.9775    4.0056   -0.0002 C   0  0  0  0  0  4           0  0  0
    1.9917    1.3969    0.0000 C   0  0  0  0  0  4           0  0  0
    2.7420    3.3645   -1.2151 C   0  0  0  0  0  4           0  0  0
    2.7165    3.3742    1.2147 C   0  0  0  0  0  4           0  0  0
    2.2487    2.0596   -1.2106 C   0  0  0  0  0  4           0  0  0
    2.2236    2.0693    1.2104 C   0  0  0  0  0  4           0  0  0
    3.4921    5.3903   -0.0005 C   0  0  0  0  0  4           0  0  0
   -0.3240   -0.0435   -2.5111 C   0  0  0  0  0  4           0  0  0
    1.4499    0.0000    0.0000 C   0  0  0  0  0  4           0  0  0
   -0.3238    0.0391    2.5195 C   0  0  0  0  0  4           0  0  0
   -1.0625   -0.9680    3.3935 C   0  0  0  0  0  4           0  0  0
   -0.6145   -0.9893    4.8554 C   0  0  0  0  0  4           0  0  0
   -0.8054    0.3484    5.5543 C   0  0  0  0  0  4           0  0  0
  1  7  1  0     0  0
  2 16  2  0     0  0
  3 16  1  0     0  0
  4 17  1  0     0  0
  5  8  1  0     0  0
  5  9  1  0     0  0
  5 18  1  0     0  0
  6  7  1  0     0  0
  6  8  2  0     0  0
  7  9  2  0     0  0
  8 19  1  0     0  0
  9 17  1  0     0  0
 10 12  2  0     0  0
 10 13  1  0     0  0
 10 16  1  0     0  0
 11 14  2  0     0  0
 11 15  1  0     0  0
 11 18  1  0     0  0
 12 14  1  0     0  0
 13 15  2  0     0  0
 19 20  1  0     0  0
 20 21  1  0     0  0
 21 22  1  0     0  0
M  END
> <standard_type>
pIC50

> <# Confs.>
25

> <canonical_smiles>
ClC(N=C1CCCC)=C(CO)N1CC2=CC=C(C(O)=O)C=C2

> <standard_relation>
=

> <Publication_ID>
nan

> <predicted_activity_value>
6.853871964321762

> <actual_activity_value>
5.769551078621726

> <Compound>
17

> <standard_units>
nM

> hash
15330608199569978610

$$$$
17_
XXILIB    08252103443D 0   0.00000     0.00000

 22 23  0     1  0            999 V2000
   -3.5518   -0.1073   -1.4900 Cl  0  0  0  0  0  1           0  0  0
    4.2553   -5.8102   -0.8407 O   0  0  0  0  0  2           0  0  0
    3.1633   -6.1012    1.1248 O   0  0  0  0  0  2           0  0  0
   -0.2116    1.3061   -2.9423 O   0  0  0  0  0  2           0  0  0
    0.0000   -0.0000    0.0000 N   0  0  0  0  0  3           0  0  0
   -2.0849   -0.0328    0.7655 N   0  0  0  0  0  3           0  0  0
   -2.0962   -0.0559   -0.6046 C   0  0  0  0  0  4           0  0  0
   -0.8144    0.0000    1.1153 C   0  0  0  0  0  4           0  0  0
   -0.8123   -0.0350   -1.1156 C   0  0  0  0  0  4           0  0  0
    3.0002   -3.9968    0.0241 C   0  0  0  0  0  4           0  0  0
    1.9917   -1.3969    0.0000 C   0  0  0  0  0  4           0  0  0
    3.8859   -2.9209    0.0118 C   0  0  0  0  0  4           0  0  0
    1.6204   -3.7993    0.0391 C   0  0  0  0  0  4           0  0  0
    3.3774   -1.6219    0.0000 C   0  0  0  0  0  4           0  0  0
    1.1201   -2.4972    0.0269 C   0  0  0  0  0  4           0  0  0
    3.5345   -5.3739    0.0450 C   0  0  0  0  0  4           0  0  0
   -0.3240   -0.0435   -2.5111 C   0  0  0  0  0  4           0  0  0
    1.4499    0.0000   -0.0000 C   0  0  0  0  0  4           0  0  0
   -0.3238    0.0391    2.5195 C   0  0  0  0  0  4           0  0  0
   -1.4809    0.0279    3.5119 C   0  0  0  0  0  4           0  0  0
   -1.0580    0.0665    4.9809 C   0  0  0  0  0  4           0  0  0
   -2.2394    0.0541    5.9392 C   0  0  0  0  0  4           0  0  0
  1  7  1  0     0  0
  2 16  2  0     0  0
  3 16  1  0     0  0
  4 17  1  0     0  0
  5  8  1  0     0  0
  5  9  1  0     0  0
  5 18  1  0     0  0
  6  7  1  0     0  0
  6  8  2  0     0  0
  7  9  2  0     0  0
  8 19  1  0     0  0
  9 17  1  0     0  0
 10 12  2  0     0  0
 10 13  1  0     0  0
 10 16  1  0     0  0
 11 14  2  0     0  0
 11 15  1  0     0  0
 11 18  1  0     0  0
 12 14  1  0     0  0
 13 15  2  0     0  0
 19 20  1  0     0  0
 20 21  1  0     0  0
 21 22  1  0     0  0
M  END
> <standard_type>
pIC50

> <# Confs.>
25

> <canonical_smiles>
ClC(N=C1CCCC)=C(CO)N1CC2=CC=C(C(O)=O)C=C2

> <standard_relation>
=

> <Publication_ID>
nan

> <predicted_activity_value>
6.853871964321762

> <actual_activity_value>
5.769551078621726

> <Compound>
17

> <standard_units>
nM

> hash
15330608199569978610

$$$$
17_
XXILIB    08252103443D 0   0.00000     0.00000

 22 23  0     1  0            999 V2000
   -3.5518   -0.1073   -1.4900 Cl  0  0  0  0  0  1           0  0  0
    4.2497   -5.7852    0.9470 O   0  0  0  0  0  2           0  0  0
    3.1605   -6.1347   -1.0105 O   0  0  0  0  0  2           0  0  0
   -0.2116    1.3061   -2.9423 O   0  0  0  0  0  2           0  0  0
    0.0000   -0.0000    0.0000 N   0  0  0  0  0  3           0  0  0
   -2.0849   -0.0328    0.7655 N   0  0  0  0  0  3           0  0  0
   -2.0962   -0.0559   -0.6046 C   0  0  0  0  0  4           0  0  0
   -0.8144    0.0000    1.1153 C   0  0  0  0  0  4           0  0  0
   -0.8123   -0.0350   -1.1156 C   0  0  0  0  0  4           0  0  0
    3.0002   -3.9968    0.0241 C   0  0  0  0  0  4           0  0  0
    1.9917   -1.3969    0.0000 C   0  0  0  0  0  4           0  0  0
    3.8859   -2.9209    0.0118 C   0  0  0  0  0  4           0  0  0
    1.6204   -3.7993    0.0391 C   0  0  0  0  0  4           0  0  0
    3.3774   -1.6219    0.0000 C   0  0  0  0  0  4           0  0  0
    1.1201   -2.4972    0.0269 C   0  0  0  0  0  4           0  0  0
    3.5345   -5.3739    0.0450 C   0  0  0  0  0  4           0  0  0
   -0.3240   -0.0435   -2.5111 C   0  0  0  0  0  4           0  0  0
    1.4499    0.0000   -0.0000 C   0  0  0  0  0  4           0  0  0
   -0.3238    0.0391    2.5195 C   0  0  0  0  0  4           0  0  0
   -1.4809    0.0279    3.5119 C   0  0  0  0  0  4           0  0  0
   -1.0580    0.0665    4.9809 C   0  0  0  0  0  4           0  0  0
   -2.2394    0.0541    5.9392 C   0  0  0  0  0  4           0  0  0
  1  7  1  0     0  0
  2 16  2  0     0  0
  3 16  1  0     0  0
  4 17  1  0     0  0
  5  8  1  0     0  0
  5  9  1  0     0  0
  5 18  1  0     0  0
  6  7  1  0     0  0
  6  8  2  0     0  0
  7  9  2  0     0  0
  8 19  1  0     0  0
  9 17  1  0     0  0
 10 12  2  0     0  0
 10 13  1  0     0  0
 10 16  1  0     0  0
 11 14  2  0     0  0
 11 15  1  0     0  0
 11 18  1  0     0  0
 12 14  1  0     0  0
 13 15  2  0     0  0
 19 20  1  0     0  0
 20 21  1  0     0  0
 21 22  1  0     0  0
M  END
> <standard_type>
pIC50

> <# Confs.>
25

> <canonical_smiles>
ClC(N=C1CCCC)=C(CO)N1CC2=CC=C(C(O)=O)C=C2

> <standard_relation>
=

> <Publication_ID>
nan

> <predicted_activity_value>
6.853871964321762

> <actual_activity_value>
5.769551078621726

> <Compound>
17

> <standard_units>
nM

> hash
15330608199569978610

$$$$
17_
XXILIB    08252103443D 0   0.00000     0.00000

 22 23  0     1  0            999 V2000
   -3.5518   -0.1073   -1.4900 Cl  0  0  0  0  0  1           0  0  0
    4.2553    5.8102    0.8407 O   0  0  0  0  0  2           0  0  0
    3.1633    6.1012   -1.1248 O   0  0  0  0  0  2           0  0  0
   -0.2116    1.3061   -2.9423 O   0  0  0  0  0  2           0  0  0
    0.0000    0.0000    0.0000 N   0  0  0  0  0  3           0  0  0
   -2.0849   -0.0328    0.7655 N   0  0  0  0  0  3           0  0  0
   -2.0962   -0.0559   -0.6046 C   0  0  0  0  0  4           0  0  0
   -0.8144    0.0000    1.1153 C   0  0  0  0  0  4           0  0  0
   -0.8123   -0.0350   -1.1156 C   0  0  0  0  0  4           0  0  0
    3.0002    3.9968   -0.0241 C   0  0  0  0  0  4           0  0  0
    1.9917    1.3969    0.0000 C   0  0  0  0  0  4           0  0  0
    3.8859    2.9209   -0.0118 C   0  0  0  0  0  4           0  0  0
    1.6204    3.7993   -0.0391 C   0  0  0  0  0  4           0  0  0
    3.3774    1.6219    0.0000 C   0  0  0  0  0  4           0  0  0
    1.1201    2.4972   -0.0269 C   0  0  0  0  0  4           0  0  0
    3.5345    5.3739   -0.0450 C   0  0  0  0  0  4           0  0  0
   -0.3240   -0.0435   -2.5111 C   0  0  0  0  0  4           0  0  0
    1.4499   -0.0000    0.0000 C   0  0  0  0  0  4           0  0  0
   -0.3238    0.0391    2.5195 C   0  0  0  0  0  4           0  0  0
   -0.1043   -1.3655    3.0698 C   0  0  0  0  0  4           0  0  0
   -1.3568   -2.2425    3.0902 C   0  0  0  0  0  4           0  0  0
   -1.0975   -3.6349    3.6454 C   0  0  0  0  0  4           0  0  0
  1  7  1  0     0  0
  2 16  2  0     0  0
  3 16  1  0     0  0
  4 17  1  0     0  0
  5  8  1  0     0  0
  5  9  1  0     0  0
  5 18  1  0     0  0
  6  7  1  0     0  0
  6  8  2  0     0  0
  7  9  2  0     0  0
  8 19  1  0     0  0
  9 17  1  0     0  0
 10 12  2  0     0  0
 10 13  1  0     0  0
 10 16  1  0     0  0
 11 14  2  0     0  0
 11 15  1  0     0  0
 11 18  1  0     0  0
 12 14  1  0     0  0
 13 15  2  0     0  0
 19 20  1  0     0  0
 20 21  1  0     0  0
 21 22  1  0     0  0
M  END
> <standard_type>
pIC50

> <# Confs.>
25

> <canonical_smiles>
ClC(N=C1CCCC)=C(CO)N1CC2=CC=C(C(O)=O)C=C2

> <standard_relation>
=

> <Publication_ID>
nan

> <predicted_activity_value>
6.853871964321762

> <actual_activity_value>
5.769551078621726

> <Compound>
17

> <standard_units>
nM

> hash
15330608199569978610

$$$$
17_
XXILIB    08252103443D 0   0.00000     0.00000

 22 23  0     1  0            999 V2000
   -3.5518   -0.1073   -1.4900 Cl  0  0  0  0  0  1           0  0  0
    4.5592   -5.6923    0.5148 O   0  0  0  0  0  2           0  0  0
    2.6820   -6.2879   -0.6085 O   0  0  0  0  0  2           0  0  0
    0.7002    0.9358   -2.6209 O   0  0  0  0  0  2           0  0  0
   -0.0000    0.0000    0.0000 N   0  0  0  0  0  3           0  0  0
   -2.0849   -0.0328    0.7655 N   0  0  0  0  0  3           0  0  0
   -2.0962   -0.0559   -0.6046 C   0  0  0  0  0  4           0  0  0
   -0.8144    0.0000    1.1153 C   0  0  0  0  0  4           0  0  0
   -0.8123   -0.0350   -1.1156 C   0  0  0  0  0  4           0  0  0
    2.9775   -4.0056    0.0002 C   0  0  0  0  0  4           0  0  0
    1.9917   -1.3969    0.0000 C   0  0  0  0  0  4           0  0  0
    2.7420   -3.3645    1.2151 C   0  0  0  0  0  4           0  0  0
    2.7165   -3.3742   -1.2147 C   0  0  0  0  0  4           0  0  0
    2.2487   -2.0596    1.2106 C   0  0  0  0  0  4           0  0  0
    2.2236   -2.0693   -1.2104 C   0  0  0  0  0  4           0  0  0
    3.4921   -5.3903    0.0005 C   0  0  0  0  0  4           0  0  0
   -0.3240   -0.0435   -2.5111 C   0  0  0  0  0  4           0  0  0
    1.4499   -0.0000   -0.0000 C   0  0  0  0  0  4           0  0  0
   -0.3238    0.0391    2.5195 C   0  0  0  0  0  4           0  0  0
   -1.1143    1.0389    3.3557 C   0  0  0  0  0  4           0  0  0
   -1.0487    2.4810    2.8511 C   0  0  0  0  0  4           0  0  0
   -1.8491    3.4476    3.7109 C   0  0  0  0  0  4           0  0  0
  1  7  1  0     0  0
  2 16  2  0     0  0
  3 16  1  0     0  0
  4 17  1  0     0  0
  5  8  1  0     0  0
  5  9  1  0     0  0
  5 18  1  0     0  0
  6  7  1  0     0  0
  6  8  2  0     0  0
  7  9  2  0     0  0
  8 19  1  0     0  0
  9 17  1  0     0  0
 10 12  2  0     0  0
 10 13  1  0     0  0
 10 16  1  0     0  0
 11 14  2  0     0  0
 11 15  1  0     0  0
 11 18  1  0     0  0
 12 14  1  0     0  0
 13 15  2  0     0  0
 19 20  1  0     0  0
 20 21  1  0     0  0
 21 22  1  0     0  0
M  END
> <standard_type>
pIC50

> <# Confs.>
25

> <canonical_smiles>
ClC(N=C1CCCC)=C(CO)N1CC2=CC=C(C(O)=O)C=C2

> <standard_relation>
=

> <Publication_ID>
nan

> <predicted_activity_value>
6.853871964321762

> <actual_activity_value>
5.769551078621726

> <Compound>
17

> <standard_units>
nM

> hash
15330608199569978610

$$$$
17_
XXILIB    08252103443D 0   0.00000     0.00000

 22 23  0     1  0            999 V2000
   -3.5518   -0.1073   -1.4900 Cl  0  0  0  0  0  1           0  0  0
    4.5592   -5.6923    0.5148 O   0  0  0  0  0  2           0  0  0
    2.6820   -6.2879   -0.6085 O   0  0  0  0  0  2           0  0  0
    0.7002    0.9358   -2.6209 O   0  0  0  0  0  2           0  0  0
   -0.0000    0.0000    0.0000 N   0  0  0  0  0  3           0  0  0
   -2.0849   -0.0328    0.7655 N   0  0  0  0  0  3           0  0  0
   -2.0962   -0.0559   -0.6046 C   0  0  0  0  0  4           0  0  0
   -0.8144    0.0000    1.1153 C   0  0  0  0  0  4           0  0  0
   -0.8123   -0.0350   -1.1156 C   0  0  0  0  0  4           0  0  0
    2.9775   -4.0056    0.0002 C   0  0  0  0  0  4           0  0  0
    1.9917   -1.3969    0.0000 C   0  0  0  0  0  4           0  0  0
    2.7420   -3.3645    1.2151 C   0  0  0  0  0  4           0  0  0
    2.7165   -3.3742   -1.2147 C   0  0  0  0  0  4           0  0  0
    2.2487   -2.0596    1.2106 C   0  0  0  0  0  4           0  0  0
    2.2236   -2.0693   -1.2104 C   0  0  0  0  0  4           0  0  0
    3.4921   -5.3903    0.0005 C   0  0  0  0  0  4           0  0  0
   -0.3240   -0.0435   -2.5111 C   0  0  0  0  0  4           0  0  0
    1.4499   -0.0000   -0.0000 C   0  0  0  0  0  4           0  0  0
   -0.3238    0.0391    2.5195 C   0  0  0  0  0  4           0  0  0
   -1.1143    1.0389    3.3557 C   0  0  0  0  0  4           0  0  0
   -0.6694    1.1382    4.8154 C   0  0  0  0  0  4           0  0  0
   -1.4812    2.1452    5.6161 C   0  0  0  0  0  4           0  0  0
  1  7  1  0     0  0
  2 16  2  0     0  0
  3 16  1  0     0  0
  4 17  1  0     0  0
  5  8  1  0     0  0
  5  9  1  0     0  0
  5 18  1  0     0  0
  6  7  1  0     0  0
  6  8  2  0     0  0
  7  9  2  0     0  0
  8 19  1  0     0  0
  9 17  1  0     0  0
 10 12  2  0     0  0
 10 13  1  0     0  0
 10 16  1  0     0  0
 11 14  2  0     0  0
 11 15  1  0     0  0
 11 18  1  0     0  0
 12 14  1  0     0  0
 13 15  2  0     0  0
 19 20  1  0     0  0
 20 21  1  0     0  0
 21 22  1  0     0  0
M  END
> <standard_type>
pIC50

> <# Confs.>
25

> <canonical_smiles>
ClC(N=C1CCCC)=C(CO)N1CC2=CC=C(C(O)=O)C=C2

> <standard_relation>
=

> <Publication_ID>
nan

> <predicted_activity_value>
6.853871964321762

> <actual_activity_value>
5.769551078621726

> <Compound>
17

> <standard_units>
nM

> hash
15330608199569978610

$$$$
17_
XXILIB    08252103443D 0   0.00000     0.00000

 22 23  0     1  0            999 V2000
   -3.5518   -0.1073   -1.4900 Cl  0  0  0  0  0  1           0  0  0
    4.2553   -5.8102   -0.8407 O   0  0  0  0  0  2           0  0  0
    3.1633   -6.1012    1.1248 O   0  0  0  0  0  2           0  0  0
   -0.2116    1.3061   -2.9423 O   0  0  0  0  0  2           0  0  0
    0.0000   -0.0000    0.0000 N   0  0  0  0  0  3           0  0  0
   -2.0849   -0.0328    0.7655 N   0  0  0  0  0  3           0  0  0
   -2.0962   -0.0559   -0.6046 C   0  0  0  0  0  4           0  0  0
   -0.8144    0.0000    1.1153 C   0  0  0  0  0  4           0  0  0
   -0.8123   -0.0350   -1.1156 C   0  0  0  0  0  4           0  0  0
    3.0002   -3.9968    0.0241 C   0  0  0  0  0  4           0  0  0
    1.9917   -1.3969    0.0000 C   0  0  0  0  0  4           0  0  0
    3.8859   -2.9209    0.0118 C   0  0  0  0  0  4           0  0  0
    1.6204   -3.7993    0.0391 C   0  0  0  0  0  4           0  0  0
    3.3774   -1.6219    0.0000 C   0  0  0  0  0  4           0  0  0
    1.1201   -2.4972    0.0269 C   0  0  0  0  0  4           0  0  0
    3.5345   -5.3739    0.0450 C   0  0  0  0  0  4           0  0  0
   -0.3240   -0.0435   -2.5111 C   0  0  0  0  0  4           0  0  0
    1.4499    0.0000   -0.0000 C   0  0  0  0  0  4           0  0  0
   -0.3238    0.0391    2.5195 C   0  0  0  0  0  4           0  0  0
   -1.0625   -0.9680    3.3935 C   0  0  0  0  0  4           0  0  0
   -0.9223   -2.4227    2.9434 C   0  0  0  0  0  4           0  0  0
   -1.6727   -3.3963    3.8397 C   0  0  0  0  0  4           0  0  0
  1  7  1  0     0  0
  2 16  2  0     0  0
  3 16  1  0     0  0
  4 17  1  0     0  0
  5  8  1  0     0  0
  5  9  1  0     0  0
  5 18  1  0     0  0
  6  7  1  0     0  0
  6  8  2  0     0  0
  7  9  2  0     0  0
  8 19  1  0     0  0
  9 17  1  0     0  0
 10 12  2  0     0  0
 10 13  1  0     0  0
 10 16  1  0     0  0
 11 14  2  0     0  0
 11 15  1  0     0  0
 11 18  1  0     0  0
 12 14  1  0     0  0
 13 15  2  0     0  0
 19 20  1  0     0  0
 20 21  1  0     0  0
 21 22  1  0     0  0
M  END
> <standard_type>
pIC50

> <# Confs.>
25

> <canonical_smiles>
ClC(N=C1CCCC)=C(CO)N1CC2=CC=C(C(O)=O)C=C2

> <standard_relation>
=

> <Publication_ID>
nan

> <predicted_activity_value>
6.853871964321762

> <actual_activity_value>
5.769551078621726

> <Compound>
17

> <standard_units>
nM

> hash
15330608199569978610

$$$$
17_
XXILIB    08252103443D 0   0.00000     0.00000

 22 23  0     1  0            999 V2000
   -3.5518   -0.1073   -1.4900 Cl  0  0  0  0  0  1           0  0  0
    4.7325   -5.5980    0.3029 O   0  0  0  0  0  2           0  0  0
    2.6645   -6.3271   -0.2738 O   0  0  0  0  0  2           0  0  0
   -0.2116    1.3061   -2.9423 O   0  0  0  0  0  2           0  0  0
    0.0000   -0.0000    0.0000 N   0  0  0  0  0  3           0  0  0
   -2.0849   -0.0328    0.7655 N   0  0  0  0  0  3           0  0  0
   -2.0962   -0.0559   -0.6046 C   0  0  0  0  0  4           0  0  0
   -0.8144    0.0000    1.1153 C   0  0  0  0  0  4           0  0  0
   -0.8123   -0.0350   -1.1156 C   0  0  0  0  0  4           0  0  0
    3.0160   -3.9907    0.0169 C   0  0  0  0  0  4           0  0  0
    1.9917   -1.3969    0.0000 C   0  0  0  0  0  4           0  0  0
    3.5619   -3.0465   -0.8508 C   0  0  0  0  0  4           0  0  0
    1.9780   -3.6606    0.8866 C   0  0  0  0  0  4           0  0  0
    3.0468   -1.7501   -0.8560 C   0  0  0  0  0  4           0  0  0
    1.4684   -2.3621    0.8749 C   0  0  0  0  0  4           0  0  0
    3.5640   -5.3624    0.0315 C   0  0  0  0  0  4           0  0  0
   -0.3240   -0.0435   -2.5111 C   0  0  0  0  0  4           0  0  0
    1.4499   -0.0000    0.0000 C   0  0  0  0  0  4           0  0  0
   -0.3238    0.0391    2.5195 C   0  0  0  0  0  4           0  0  0
   -1.0625   -0.9680    3.3935 C   0  0  0  0  0  4           0  0  0
   -0.6145   -0.9893    4.8554 C   0  0  0  0  0  4           0  0  0
   -1.3741   -2.0059    5.6943 C   0  0  0  0  0  4           0  0  0
  1  7  1  0     0  0
  2 16  2  0     0  0
  3 16  1  0     0  0
  4 17  1  0     0  0
  5  8  1  0     0  0
  5  9  1  0     0  0
  5 18  1  0     0  0
  6  7  1  0     0  0
  6  8  2  0     0  0
  7  9  2  0     0  0
  8 19  1  0     0  0
  9 17  1  0     0  0
 10 12  2  0     0  0
 10 13  1  0     0  0
 10 16  1  0     0  0
 11 14  2  0     0  0
 11 15  1  0     0  0
 11 18  1  0     0  0
 12 14  1  0     0  0
 13 15  2  0     0  0
 19 20  1  0     0  0
 20 21  1  0     0  0
 21 22  1  0     0  0
M  END
> <standard_type>
pIC50

> <# Confs.>
25

> <canonical_smiles>
ClC(N=C1CCCC)=C(CO)N1CC2=CC=C(C(O)=O)C=C2

> <standard_relation>
=

> <Publication_ID>
nan

> <predicted_activity_value>
6.853871964321762

> <actual_activity_value>
5.769551078621726

> <Compound>
17

> <standard_units>
nM

> hash
15330608199569978610

$$$$
17_
XXILIB    08252103443D 0   0.00000     0.00000

 22 23  0     1  0            999 V2000
   -3.5518   -0.1073   -1.4900 Cl  0  0  0  0  0  1           0  0  0
    4.2497   -5.7852    0.9470 O   0  0  0  0  0  2           0  0  0
    3.1605   -6.1347   -1.0105 O   0  0  0  0  0  2           0  0  0
   -0.2116    1.3061   -2.9423 O   0  0  0  0  0  2           0  0  0
    0.0000   -0.0000    0.0000 N   0  0  0  0  0  3           0  0  0
   -2.0849   -0.0328    0.7655 N   0  0  0  0  0  3           0  0  0
   -2.0962   -0.0559   -0.6046 C   0  0  0  0  0  4           0  0  0
   -0.8144    0.0000    1.1153 C   0  0  0  0  0  4           0  0  0
   -0.8123   -0.0350   -1.1156 C   0  0  0  0  0  4           0  0  0
    3.0002   -3.9968    0.0241 C   0  0  0  0  0  4           0  0  0
    1.9917   -1.3969    0.0000 C   0  0  0  0  0  4           0  0  0
    3.8859   -2.9209    0.0118 C   0  0  0  0  0  4           0  0  0
    1.6204   -3.7993    0.0391 C   0  0  0  0  0  4           0  0  0
    3.3774   -1.6219    0.0000 C   0  0  0  0  0  4           0  0  0
    1.1201   -2.4972    0.0269 C   0  0  0  0  0  4           0  0  0
    3.5345   -5.3739    0.0450 C   0  0  0  0  0  4           0  0  0
   -0.3240   -0.0435   -2.5111 C   0  0  0  0  0  4           0  0  0
    1.4499    0.0000   -0.0000 C   0  0  0  0  0  4           0  0  0
   -0.3238    0.0391    2.5195 C   0  0  0  0  0  4           0  0  0
   -1.0625   -0.9680    3.3935 C   0  0  0  0  0  4           0  0  0
   -0.9223   -2.4227    2.9434 C   0  0  0  0  0  4           0  0  0
   -1.6727   -3.3963    3.8397 C   0  0  0  0  0  4           0  0  0
  1  7  1  0     0  0
  2 16  2  0     0  0
  3 16  1  0     0  0
  4 17  1  0     0  0
  5  8  1  0     0  0
  5  9  1  0     0  0
  5 18  1  0     0  0
  6  7  1  0     0  0
  6  8  2  0     0  0
  7  9  2  0     0  0
  8 19  1  0     0  0
  9 17  1  0     0  0
 10 12  2  0     0  0
 10 13  1  0     0  0
 10 16  1  0     0  0
 11 14  2  0     0  0
 11 15  1  0     0  0
 11 18  1  0     0  0
 12 14  1  0     0  0
 13 15  2  0     0  0
 19 20  1  0     0  0
 20 21  1  0     0  0
 21 22  1  0     0  0
M  END
> <standard_type>
pIC50

> <# Confs.>
25

> <canonical_smiles>
ClC(N=C1CCCC)=C(CO)N1CC2=CC=C(C(O)=O)C=C2

> <standard_relation>
=

> <Publication_ID>
nan

> <predicted_activity_value>
6.853871964321762

> <actual_activity_value>
5.769551078621726

> <Compound>
17

> <standard_units>
nM

> hash
15330608199569978610

$$$$
17_
XXILIB    08252103443D 0   0.00000     0.00000

 22 23  0     1  0            999 V2000
   -3.5518   -0.1073   -1.4900 Cl  0  0  0  0  0  1           0  0  0
    2.8832    6.3151   -0.5186 O   0  0  0  0  0  2           0  0  0
    4.6838    5.5440    0.6233 O   0  0  0  0  0  2           0  0  0
   -0.2116    1.3061   -2.9423 O   0  0  0  0  0  2           0  0  0
    0.0000   -0.0000    0.0000 N   0  0  0  0  0  3           0  0  0
   -2.0849   -0.0328    0.7655 N   0  0  0  0  0  3           0  0  0
   -2.0962   -0.0559   -0.6046 C   0  0  0  0  0  4           0  0  0
   -0.8144    0.0000    1.1153 C   0  0  0  0  0  4           0  0  0
   -0.8123   -0.0350   -1.1156 C   0  0  0  0  0  4           0  0  0
    2.9775    4.0056   -0.0002 C   0  0  0  0  0  4           0  0  0
    1.9917    1.3969    0.0000 C   0  0  0  0  0  4           0  0  0
    2.7420    3.3645   -1.2151 C   0  0  0  0  0  4           0  0  0
    2.7165    3.3742    1.2147 C   0  0  0  0  0  4           0  0  0
    2.2487    2.0596   -1.2106 C   0  0  0  0  0  4           0  0  0
    2.2236    2.0693    1.2104 C   0  0  0  0  0  4           0  0  0
    3.4921    5.3903   -0.0005 C   0  0  0  0  0  4           0  0  0
   -0.3240   -0.0435   -2.5111 C   0  0  0  0  0  4           0  0  0
    1.4499    0.0000    0.0000 C   0  0  0  0  0  4           0  0  0
   -0.3238    0.0391    2.5195 C   0  0  0  0  0  4           0  0  0
   -1.0625   -0.9680    3.3935 C   0  0  0  0  0  4           0  0  0
   -0.9223   -2.4227    2.9434 C   0  0  0  0  0  4           0  0  0
    0.5211   -2.9030    2.9288 C   0  0  0  0  0  4           0  0  0
  1  7  1  0     0  0
  2 16  2  0     0  0
  3 16  1  0     0  0
  4 17  1  0     0  0
  5  8  1  0     0  0
  5  9  1  0     0  0
  5 18  1  0     0  0
  6  7  1  0     0  0
  6  8  2  0     0  0
  7  9  2  0     0  0
  8 19  1  0     0  0
  9 17  1  0     0  0
 10 12  2  0     0  0
 10 13  1  0     0  0
 10 16  1  0     0  0
 11 14  2  0     0  0
 11 15  1  0     0  0
 11 18  1  0     0  0
 12 14  1  0     0  0
 13 15  2  0     0  0
 19 20  1  0     0  0
 20 21  1  0     0  0
 21 22  1  0     0  0
M  END
> <standard_type>
pIC50

> <# Confs.>
25

> <canonical_smiles>
ClC(N=C1CCCC)=C(CO)N1CC2=CC=C(C(O)=O)C=C2

> <standard_relation>
=

> <Publication_ID>
nan

> <predicted_activity_value>
6.853871964321762

> <actual_activity_value>
5.769551078621726

> <Compound>
17

> <standard_units>
nM

> hash
15330608199569978610

$$$$
17_
XXILIB    08252103443D 0   0.00000     0.00000

 22 23  0     1  0            999 V2000
   -3.5518   -0.1073   -1.4900 Cl  0  0  0  0  0  1           0  0  0
    4.6032   -5.6538    0.5684 O   0  0  0  0  0  2           0  0  0
    2.7404   -6.2908   -0.5561 O   0  0  0  0  0  2           0  0  0
   -0.2116    1.3061   -2.9423 O   0  0  0  0  0  2           0  0  0
   -0.0000    0.0000    0.0000 N   0  0  0  0  0  3           0  0  0
   -2.0849   -0.0328    0.7655 N   0  0  0  0  0  3           0  0  0
   -2.0962   -0.0559   -0.6046 C   0  0  0  0  0  4           0  0  0
   -0.8144    0.0000    1.1153 C   0  0  0  0  0  4           0  0  0
   -0.8123   -0.0350   -1.1156 C   0  0  0  0  0  4           0  0  0
    3.0002   -3.9968    0.0241 C   0  0  0  0  0  4           0  0  0
    1.9917   -1.3969    0.0000 C   0  0  0  0  0  4           0  0  0
    3.8859   -2.9209    0.0118 C   0  0  0  0  0  4           0  0  0
    1.6204   -3.7993    0.0391 C   0  0  0  0  0  4           0  0  0
    3.3774   -1.6219    0.0000 C   0  0  0  0  0  4           0  0  0
    1.1201   -2.4972    0.0269 C   0  0  0  0  0  4           0  0  0
    3.5345   -5.3739    0.0450 C   0  0  0  0  0  4           0  0  0
   -0.3240   -0.0435   -2.5111 C   0  0  0  0  0  4           0  0  0
    1.4499    0.0000   -0.0000 C   0  0  0  0  0  4           0  0  0
   -0.3238    0.0391    2.5195 C   0  0  0  0  0  4           0  0  0
   -0.1775    1.4728    3.0164 C   0  0  0  0  0  4           0  0  0
    0.3237    1.5981    4.4556 C   0  0  0  0  0  4           0  0  0
    1.6939    0.9709    4.6638 C   0  0  0  0  0  4           0  0  0
  1  7  1  0     0  0
  2 16  2  0     0  0
  3 16  1  0     0  0
  4 17  1  0     0  0
  5  8  1  0     0  0
  5  9  1  0     0  0
  5 18  1  0     0  0
  6  7  1  0     0  0
  6  8  2  0     0  0
  7  9  2  0     0  0
  8 19  1  0     0  0
  9 17  1  0     0  0
 10 12  2  0     0  0
 10 13  1  0     0  0
 10 16  1  0     0  0
 11 14  2  0     0  0
 11 15  1  0     0  0
 11 18  1  0     0  0
 12 14  1  0     0  0
 13 15  2  0     0  0
 19 20  1  0     0  0
 20 21  1  0     0  0
 21 22  1  0     0  0
M  END
> <standard_type>
pIC50

> <# Confs.>
25

> <canonical_smiles>
ClC(N=C1CCCC)=C(CO)N1CC2=CC=C(C(O)=O)C=C2

> <standard_relation>
=

> <Publication_ID>
nan

> <predicted_activity_value>
6.853871964321762

> <actual_activity_value>
5.769551078621726

> <Compound>
17

> <standard_units>
nM

> hash
15330608199569978610

$$$$
17_
XXILIB    08252103443D 0   0.00000     0.00000

 22 23  0     1  0            999 V2000
   -3.5518   -0.1073   -1.4900 Cl  0  0  0  0  0  1           0  0  0
    4.5592    5.6923   -0.5148 O   0  0  0  0  0  2           0  0  0
    2.6820    6.2879    0.6085 O   0  0  0  0  0  2           0  0  0
   -0.2116    1.3061   -2.9423 O   0  0  0  0  0  2           0  0  0
    0.0000   -0.0000    0.0000 N   0  0  0  0  0  3           0  0  0
   -2.0849   -0.0328    0.7655 N   0  0  0  0  0  3           0  0  0
   -2.0962   -0.0559   -0.6046 C   0  0  0  0  0  4           0  0  0
   -0.8144    0.0000    1.1153 C   0  0  0  0  0  4           0  0  0
   -0.8123   -0.0350   -1.1156 C   0  0  0  0  0  4           0  0  0
    2.9775    4.0056   -0.0002 C   0  0  0  0  0  4           0  0  0
    1.9917    1.3969    0.0000 C   0  0  0  0  0  4           0  0  0
    2.7420    3.3645   -1.2151 C   0  0  0  0  0  4           0  0  0
    2.7165    3.3742    1.2147 C   0  0  0  0  0  4           0  0  0
    2.2487    2.0596   -1.2106 C   0  0  0  0  0  4           0  0  0
    2.2236    2.0693    1.2104 C   0  0  0  0  0  4           0  0  0
    3.4921    5.3903   -0.0005 C   0  0  0  0  0  4           0  0  0
   -0.3240   -0.0435   -2.5111 C   0  0  0  0  0  4           0  0  0
    1.4499    0.0000    0.0000 C   0  0  0  0  0  4           0  0  0
   -0.3238    0.0391    2.5195 C   0  0  0  0  0  4           0  0  0
   -1.4809    0.0279    3.5119 C   0  0  0  0  0  4           0  0  0
   -1.0580    0.0665    4.9809 C   0  0  0  0  0  4           0  0  0
   -0.2523    1.3076    5.3343 C   0  0  0  0  0  4           0  0  0
  1  7  1  0     0  0
  2 16  2  0     0  0
  3 16  1  0     0  0
  4 17  1  0     0  0
  5  8  1  0     0  0
  5  9  1  0     0  0
  5 18  1  0     0  0
  6  7  1  0     0  0
  6  8  2  0     0  0
  7  9  2  0     0  0
  8 19  1  0     0  0
  9 17  1  0     0  0
 10 12  2  0     0  0
 10 13  1  0     0  0
 10 16  1  0     0  0
 11 14  2  0     0  0
 11 15  1  0     0  0
 11 18  1  0     0  0
 12 14  1  0     0  0
 13 15  2  0     0  0
 19 20  1  0     0  0
 20 21  1  0     0  0
 21 22  1  0     0  0
M  END
> <standard_type>
pIC50

> <# Confs.>
25

> <canonical_smiles>
ClC(N=C1CCCC)=C(CO)N1CC2=CC=C(C(O)=O)C=C2

> <standard_relation>
=

> <Publication_ID>
nan

> <predicted_activity_value>
6.853871964321762

> <actual_activity_value>
5.769551078621726

> <Compound>
17

> <standard_units>
nM

> hash
15330608199569978610

$$$$
17_
XXILIB    08252103443D 0   0.00000     0.00000

 22 23  0     1  0            999 V2000
   -3.5518   -0.1073   -1.4900 Cl  0  0  0  0  0  1           0  0  0
    4.2553    5.8102    0.8407 O   0  0  0  0  0  2           0  0  0
    3.1633    6.1012   -1.1248 O   0  0  0  0  0  2           0  0  0
   -0.2116    1.3061   -2.9423 O   0  0  0  0  0  2           0  0  0
    0.0000   -0.0000    0.0000 N   0  0  0  0  0  3           0  0  0
   -2.0849   -0.0328    0.7655 N   0  0  0  0  0  3           0  0  0
   -2.0962   -0.0559   -0.6046 C   0  0  0  0  0  4           0  0  0
   -0.8144    0.0000    1.1153 C   0  0  0  0  0  4           0  0  0
   -0.8123   -0.0350   -1.1156 C   0  0  0  0  0  4           0  0  0
    3.0002    3.9968   -0.0241 C   0  0  0  0  0  4           0  0  0
    1.9917    1.3969    0.0000 C   0  0  0  0  0  4           0  0  0
    3.8859    2.9209   -0.0118 C   0  0  0  0  0  4           0  0  0
    1.6204    3.7993   -0.0391 C   0  0  0  0  0  4           0  0  0
    3.3774    1.6219    0.0000 C   0  0  0  0  0  4           0  0  0
    1.1201    2.4972   -0.0269 C   0  0  0  0  0  4           0  0  0
    3.5345    5.3739   -0.0450 C   0  0  0  0  0  4           0  0  0
   -0.3240   -0.0435   -2.5111 C   0  0  0  0  0  4           0  0  0
    1.4499   -0.0000    0.0000 C   0  0  0  0  0  4           0  0  0
   -0.3238    0.0391    2.5195 C   0  0  0  0  0  4           0  0  0
   -1.4809    0.0279    3.5119 C   0  0  0  0  0  4           0  0  0
   -1.0580    0.0665    4.9809 C   0  0  0  0  0  4           0  0  0
   -2.2394    0.0541    5.9392 C   0  0  0  0  0  4           0  0  0
  1  7  1  0     0  0
  2 16  2  0     0  0
  3 16  1  0     0  0
  4 17  1  0     0  0
  5  8  1  0     0  0
  5  9  1  0     0  0
  5 18  1  0     0  0
  6  7  1  0     0  0
  6  8  2  0     0  0
  7  9  2  0     0  0
  8 19  1  0     0  0
  9 17  1  0     0  0
 10 12  2  0     0  0
 10 13  1  0     0  0
 10 16  1  0     0  0
 11 14  2  0     0  0
 11 15  1  0     0  0
 11 18  1  0     0  0
 12 14  1  0     0  0
 13 15  2  0     0  0
 19 20  1  0     0  0
 20 21  1  0     0  0
 21 22  1  0     0  0
M  END
> <standard_type>
pIC50

> <# Confs.>
25

> <canonical_smiles>
ClC(N=C1CCCC)=C(CO)N1CC2=CC=C(C(O)=O)C=C2

> <standard_relation>
=

> <Publication_ID>
nan

> <predicted_activity_value>
6.853871964321762

> <actual_activity_value>
5.769551078621726

> <Compound>
17

> <standard_units>
nM

> hash
15330608199569978610

$$$$
17_
XXILIB    08252103443D 0   0.00000     0.00000

 22 23  0     1  0            999 V2000
   -3.5518   -0.1073   -1.4900 Cl  0  0  0  0  0  1           0  0  0
    4.6878    5.6446    0.0016 O   0  0  0  0  0  2           0  0  0
    2.5311    6.3438   -0.0091 O   0  0  0  0  0  2           0  0  0
   -0.2116    1.3061   -2.9423 O   0  0  0  0  0  2           0  0  0
    0.0000   -0.0000    0.0000 N   0  0  0  0  0  3           0  0  0
   -2.0849   -0.0328    0.7655 N   0  0  0  0  0  3           0  0  0
   -2.0962   -0.0559   -0.6046 C   0  0  0  0  0  4           0  0  0
   -0.8144    0.0000    1.1153 C   0  0  0  0  0  4           0  0  0
   -0.8123   -0.0350   -1.1156 C   0  0  0  0  0  4           0  0  0
    2.9775    4.0056   -0.0002 C   0  0  0  0  0  4           0  0  0
    1.9917    1.3969    0.0000 C   0  0  0  0  0  4           0  0  0
    2.7420    3.3645   -1.2151 C   0  0  0  0  0  4           0  0  0
    2.7165    3.3742    1.2147 C   0  0  0  0  0  4           0  0  0
    2.2487    2.0596   -1.2106 C   0  0  0  0  0  4           0  0  0
    2.2236    2.0693    1.2104 C   0  0  0  0  0  4           0  0  0
    3.4921    5.3903   -0.0005 C   0  0  0  0  0  4           0  0  0
   -0.3240   -0.0435   -2.5111 C   0  0  0  0  0  4           0  0  0
    1.4499    0.0000    0.0000 C   0  0  0  0  0  4           0  0  0
   -0.3238    0.0391    2.5195 C   0  0  0  0  0  4           0  0  0
   -1.0625   -0.9680    3.3935 C   0  0  0  0  0  4           0  0  0
   -0.6145   -0.9893    4.8554 C   0  0  0  0  0  4           0  0  0
    0.8577   -1.3351    5.0201 C   0  0  0  0  0  4           0  0  0
  1  7  1  0     0  0
  2 16  2  0     0  0
  3 16  1  0     0  0
  4 17  1  0     0  0
  5  8  1  0     0  0
  5  9  1  0     0  0
  5 18  1  0     0  0
  6  7  1  0     0  0
  6  8  2  0     0  0
  7  9  2  0     0  0
  8 19  1  0     0  0
  9 17  1  0     0  0
 10 12  2  0     0  0
 10 13  1  0     0  0
 10 16  1  0     0  0
 11 14  2  0     0  0
 11 15  1  0     0  0
 11 18  1  0     0  0
 12 14  1  0     0  0
 13 15  2  0     0  0
 19 20  1  0     0  0
 20 21  1  0     0  0
 21 22  1  0     0  0
M  END
> <standard_type>
pIC50

> <# Confs.>
25

> <canonical_smiles>
ClC(N=C1CCCC)=C(CO)N1CC2=CC=C(C(O)=O)C=C2

> <standard_relation>
=

> <Publication_ID>
nan

> <predicted_activity_value>
6.853871964321762

> <actual_activity_value>
5.769551078621726

> <Compound>
17

> <standard_units>
nM

> hash
15330608199569978610

$$$$
17_
XXILIB    08252103443D 0   0.00000     0.00000

 22 23  0     1  0            999 V2000
   -3.5518   -0.1073   -1.4900 Cl  0  0  0  0  0  1           0  0  0
    3.5605   -6.0796   -0.9585 O   0  0  0  0  0  2           0  0  0
    4.0711   -5.7492    1.2257 O   0  0  0  0  0  2           0  0  0
   -0.2116    1.3061   -2.9423 O   0  0  0  0  0  2           0  0  0
    0.0000   -0.0000    0.0000 N   0  0  0  0  0  3           0  0  0
   -2.0849   -0.0328    0.7655 N   0  0  0  0  0  3           0  0  0
   -2.0962   -0.0559   -0.6046 C   0  0  0  0  0  4           0  0  0
   -0.8144    0.0000    1.1153 C   0  0  0  0  0  4           0  0  0
   -0.8123   -0.0350   -1.1156 C   0  0  0  0  0  4           0  0  0
    3.0160   -3.9907    0.0169 C   0  0  0  0  0  4           0  0  0
    1.9917   -1.3969    0.0000 C   0  0  0  0  0  4           0  0  0
    3.5619   -3.0465   -0.8508 C   0  0  0  0  0  4           0  0  0
    1.9780   -3.6606    0.8866 C   0  0  0  0  0  4           0  0  0
    3.0468   -1.7501   -0.8560 C   0  0  0  0  0  4           0  0  0
    1.4684   -2.3621    0.8749 C   0  0  0  0  0  4           0  0  0
    3.5640   -5.3624    0.0315 C   0  0  0  0  0  4           0  0  0
   -0.3240   -0.0435   -2.5111 C   0  0  0  0  0  4           0  0  0
    1.4499   -0.0000    0.0000 C   0  0  0  0  0  4           0  0  0
   -0.3238    0.0391    2.5195 C   0  0  0  0  0  4           0  0  0
   -1.0625   -0.9680    3.3935 C   0  0  0  0  0  4           0  0  0
   -0.6145   -0.9893    4.8554 C   0  0  0  0  0  4           0  0  0
   -1.3741   -2.0059    5.6943 C   0  0  0  0  0  4           0  0  0
  1  7  1  0     0  0
  2 16  2  0     0  0
  3 16  1  0     0  0
  4 17  1  0     0  0
  5  8  1  0     0  0
  5  9  1  0     0  0
  5 18  1  0     0  0
  6  7  1  0     0  0
  6  8  2  0     0  0
  7  9  2  0     0  0
  8 19  1  0     0  0
  9 17  1  0     0  0
 10 12  2  0     0  0
 10 13  1  0     0  0
 10 16  1  0     0  0
 11 14  2  0     0  0
 11 15  1  0     0  0
 11 18  1  0     0  0
 12 14  1  0     0  0
 13 15  2  0     0  0
 19 20  1  0     0  0
 20 21  1  0     0  0
 21 22  1  0     0  0
M  END
> <standard_type>
pIC50

> <# Confs.>
25

> <canonical_smiles>
ClC(N=C1CCCC)=C(CO)N1CC2=CC=C(C(O)=O)C=C2

> <standard_relation>
=

> <Publication_ID>
nan

> <predicted_activity_value>
6.853871964321762

> <actual_activity_value>
5.769551078621726

> <Compound>
17

> <standard_units>
nM

> hash
15330608199569978610

$$$$
2_
XXILIB    08252103443D 0   0.00000     0.00000

 33 35  0     1  0            999 V2000
    5.0286    1.4584   -0.0304 Cl  0  0  0  0  0  1           0  0  0
   -4.8592    2.4854    6.9797 S   0  0  1  0  0  6           0  0  0
   -3.7633    2.8802    6.1172 O   0  0  0  0  0  2           0  0  0
   -5.4083    3.3926    7.9691 O   0  0  0  0  0  2           0  0  0
   -6.0917    1.9676    6.0461 O   0  0  0  0  0  2           0  0  0
   -4.3021    0.0129    4.9620 O   0  0  0  0  0  2           0  0  0
    1.5677    2.8828   -1.3538 O   0  0  0  0  0  2           0  0  0
    1.4529   -0.0000    0.0000 N   0  0  0  0  0  3           0  0  0
    3.5353   -0.7627   -0.0092 N   0  0  0  0  0  3           0  0  0
   -2.0187    0.0296    5.3527 N   0  0  0  0  0  3           0  0  0
    3.5493    0.6087   -0.0087 C   0  0  0  0  0  4           0  0  0
   -4.3165    1.0480    7.8420 C   0  0  0  0  0  4           0  0  0
    2.2669   -1.1145    0.0000 C   0  0  0  0  0  4           0  0  0
    2.2633    1.1243    0.0084 C   0  0  0  0  0  4           0  0  0
   -1.5586    0.0226    4.0221 C   0  0  0  0  0  4           0  0  0
   -3.5985    0.0304    7.1951 C   0  0  0  0  0  4           0  0  0
   -0.5407    0.0000    1.3974 C   0  0  0  0  0  4           0  0  0
   -4.5637    0.9709    9.2161 C   0  0  0  0  0  4           0  0  0
   -2.4307    0.0093    2.9287 C   0  0  0  0  0  4           0  0  0
   -0.1782    0.0302    3.7996 C   0  0  0  0  0  4           0  0  0
   -3.1309   -1.0603    7.9427 C   0  0  0  0  0  4           0  0  0
   -1.9229   -0.0000    1.6265 C   0  0  0  0  0  4           0  0  0
    0.3265    0.0226    2.4967 C   0  0  0  0  0  4           0  0  0
   -4.0926   -0.1190    9.9481 C   0  0  0  0  0  4           0  0  0
   -3.3761   -1.1310    9.3141 C   0  0  0  0  0  4           0  0  0
   -3.3457    0.0244    5.7341 C   0  0  0  0  0  4           0  0  0
    1.7112    2.4980    0.0074 C   0  0  0  0  0  4           0  0  0
    1.0401    4.1979   -1.4733 C   0  0  0  0  0  4           0  0  0
    0.0000    0.0000    0.0000 C   0  0  0  0  0  4           0  0  0
    1.7843   -2.5209    0.0048 C   0  0  0  0  0  4           0  0  0
    1.5910   -3.0743   -1.4037 C   0  0  0  0  0  4           0  0  0
    1.0950   -4.5194   -1.4498 C   0  0  0  0  0  4           0  0  0
    0.9255   -5.0032   -2.8810 C   0  0  0  0  0  4           0  0  0
  1 11  1  0     0  0
  2  3  2  0     0  0
  2  4  2  0     0  0
  2  5  1  0     0  0
  2 12  1  0     0  0
  6 26  2  0     0  0
  7 27  1  0     0  0
  7 28  1  0     0  0
  8 13  1  0     0  0
  8 14  1  0     0  0
  8 29  1  0     0  0
  9 11  1  0     0  0
  9 13  2  0     0  0
 10 15  1  0     0  0
 10 26  1  0     0  0
 11 14  2  0     0  0
 12 16  1  0     0  0
 12 18  2  0     0  0
 13 30  1  0     0  0
 14 27  1  0     0  0
 15 19  2  0     0  0
 15 20  1  0     0  0
 16 21  2  0     0  0
 16 26  1  0     0  0
 17 22  2  0     0  0
 17 23  1  0     0  0
 17 29  1  0     0  0
 18 24  1  0     0  0
 19 22  1  0     0  0
 20 23  2  0     0  0
 21 25  1  0     0  0
 24 25  2  0     0  0
 30 31  1  0     0  0
 31 32  1  0     0  0
 32 33  1  0     0  0
M  END
> <standard_type>
pIC50

> <# Confs.>
25

> <canonical_smiles>
CCCCC1=NC(Cl)=C(COC)N1CC2=CC=C(NC(C3=CC=CC=C3S(=O)(O)=O)=O)C=C2

> <standard_relation>
=

> <Publication_ID>
nan

> <predicted_activity_value>
6.4089353929735005

> <actual_activity_value>
7.920818753952375

> <Compound>
2

> <standard_units>
nM

> hash
16370352787251155381

$$$$
2_
XXILIB    08252103443D 0   0.00000     0.00000

 33 35  0     1  0            999 V2000
    5.0286    1.4584   -0.0304 Cl  0  0  0  0  0  1           0  0  0
   -4.8592    2.4854    6.9797 S   0  0  1  0  0  6           0  0  0
   -3.7633    2.8802    6.1172 O   0  0  0  0  0  2           0  0  0
   -5.4083    3.3926    7.9691 O   0  0  0  0  0  2           0  0  0
   -6.0917    1.9676    6.0461 O   0  0  0  0  0  2           0  0  0
   -4.3021    0.0129    4.9620 O   0  0  0  0  0  2           0  0  0
    1.5677    2.8828   -1.3538 O   0  0  0  0  0  2           0  0  0
    1.4529   -0.0000    0.0000 N   0  0  0  0  0  3           0  0  0
    3.5353   -0.7627   -0.0092 N   0  0  0  0  0  3           0  0  0
   -2.0187    0.0296    5.3527 N   0  0  0  0  0  3           0  0  0
    3.5493    0.6087   -0.0087 C   0  0  0  0  0  4           0  0  0
   -4.3165    1.0480    7.8420 C   0  0  0  0  0  4           0  0  0
    2.2669   -1.1145    0.0000 C   0  0  0  0  0  4           0  0  0
    2.2633    1.1243    0.0084 C   0  0  0  0  0  4           0  0  0
   -1.5586    0.0226    4.0221 C   0  0  0  0  0  4           0  0  0
   -3.5985    0.0304    7.1951 C   0  0  0  0  0  4           0  0  0
   -0.5407    0.0000    1.3974 C   0  0  0  0  0  4           0  0  0
   -4.5637    0.9709    9.2161 C   0  0  0  0  0  4           0  0  0
   -2.4307    0.0093    2.9287 C   0  0  0  0  0  4           0  0  0
   -0.1782    0.0302    3.7996 C   0  0  0  0  0  4           0  0  0
   -3.1309   -1.0603    7.9427 C   0  0  0  0  0  4           0  0  0
   -1.9229   -0.0000    1.6265 C   0  0  0  0  0  4           0  0  0
    0.3265    0.0226    2.4967 C   0  0  0  0  0  4           0  0  0
   -4.0926   -0.1190    9.9481 C   0  0  0  0  0  4           0  0  0
   -3.3761   -1.1310    9.3141 C   0  0  0  0  0  4           0  0  0
   -3.3457    0.0244    5.7341 C   0  0  0  0  0  4           0  0  0
    1.7112    2.4980    0.0074 C   0  0  0  0  0  4           0  0  0
    1.0401    4.1979   -1.4733 C   0  0  0  0  0  4           0  0  0
    0.0000    0.0000    0.0000 C   0  0  0  0  0  4           0  0  0
    1.7843   -2.5209    0.0048 C   0  0  0  0  0  4           0  0  0
    1.5910   -3.0743   -1.4037 C   0  0  0  0  0  4           0  0  0
    2.8602   -3.0859   -2.2553 C   0  0  0  0  0  4           0  0  0
    2.5936   -3.6486   -3.6422 C   0  0  0  0  0  4           0  0  0
  1 11  1  0     0  0
  2  3  2  0     0  0
  2  4  2  0     0  0
  2  5  1  0     0  0
  2 12  1  0     0  0
  6 26  2  0     0  0
  7 27  1  0     0  0
  7 28  1  0     0  0
  8 13  1  0     0  0
  8 14  1  0     0  0
  8 29  1  0     0  0
  9 11  1  0     0  0
  9 13  2  0     0  0
 10 15  1  0     0  0
 10 26  1  0     0  0
 11 14  2  0     0  0
 12 16  1  0     0  0
 12 18  2  0     0  0
 13 30  1  0     0  0
 14 27  1  0     0  0
 15 19  2  0     0  0
 15 20  1  0     0  0
 16 21  2  0     0  0
 16 26  1  0     0  0
 17 22  2  0     0  0
 17 23  1  0     0  0
 17 29  1  0     0  0
 18 24  1  0     0  0
 19 22  1  0     0  0
 20 23  2  0     0  0
 21 25  1  0     0  0
 24 25  2  0     0  0
 30 31  1  0     0  0
 31 32  1  0     0  0
 32 33  1  0     0  0
M  END
> <standard_type>
pIC50

> <# Confs.>
25

> <canonical_smiles>
CCCCC1=NC(Cl)=C(COC)N1CC2=CC=C(NC(C3=CC=CC=C3S(=O)(O)=O)=O)C=C2

> <standard_relation>
=

> <Publication_ID>
nan

> <predicted_activity_value>
6.4089353929735005

> <actual_activity_value>
7.920818753952375

> <Compound>
2

> <standard_units>
nM

> hash
16370352787251155381

$$$$
2_
XXILIB    08252103443D 0   0.00000     0.00000

 33 35  0     1  0            999 V2000
    5.0286   -1.4584    0.0304 Cl  0  0  0  0  0  1           0  0  0
   -4.8592    2.4854    6.9797 S   0  0  1  0  0  6           0  0  0
   -3.7633    2.8802    6.1172 O   0  0  0  0  0  2           0  0  0
   -5.4083    3.3926    7.9691 O   0  0  0  0  0  2           0  0  0
   -6.0917    1.9676    6.0461 O   0  0  0  0  0  2           0  0  0
   -4.3021    0.0129    4.9620 O   0  0  0  0  0  2           0  0  0
    1.5480   -2.8767   -1.3681 O   0  0  0  0  0  2           0  0  0
    1.4529    0.0000    0.0000 N   0  0  0  0  0  3           0  0  0
    3.5353    0.7627    0.0092 N   0  0  0  0  0  3           0  0  0
   -2.0187    0.0296    5.3527 N   0  0  0  0  0  3           0  0  0
    3.5493   -0.6087    0.0087 C   0  0  0  0  0  4           0  0  0
   -4.3165    1.0480    7.8420 C   0  0  0  0  0  4           0  0  0
    2.2669    1.1145    0.0000 C   0  0  0  0  0  4           0  0  0
    2.2633   -1.1243   -0.0084 C   0  0  0  0  0  4           0  0  0
   -1.5586    0.0226    4.0221 C   0  0  0  0  0  4           0  0  0
   -3.5985    0.0304    7.1951 C   0  0  0  0  0  4           0  0  0
   -0.5407    0.0000    1.3974 C   0  0  0  0  0  4           0  0  0
   -4.5637    0.9709    9.2161 C   0  0  0  0  0  4           0  0  0
   -2.4307    0.0093    2.9287 C   0  0  0  0  0  4           0  0  0
   -0.1782    0.0302    3.7996 C   0  0  0  0  0  4           0  0  0
   -3.1309   -1.0603    7.9427 C   0  0  0  0  0  4           0  0  0
   -1.9229   -0.0000    1.6265 C   0  0  0  0  0  4           0  0  0
    0.3265    0.0226    2.4967 C   0  0  0  0  0  4           0  0  0
   -4.0926   -0.1190    9.9481 C   0  0  0  0  0  4           0  0  0
   -3.3761   -1.1310    9.3141 C   0  0  0  0  0  4           0  0  0
   -3.3457    0.0244    5.7341 C   0  0  0  0  0  4           0  0  0
    1.7112   -2.4980   -0.0074 C   0  0  0  0  0  4           0  0  0
    1.0187   -4.1914   -1.4857 C   0  0  0  0  0  4           0  0  0
    0.0000    0.0000    0.0000 C   0  0  0  0  0  4           0  0  0
    1.7843    2.5209   -0.0048 C   0  0  0  0  0  4           0  0  0
    1.6000    3.0677   -1.4172 C   0  0  0  0  0  4           0  0  0
    1.1043    4.5125   -1.4732 C   0  0  0  0  0  4           0  0  0
    0.9441    4.9897   -2.9077 C   0  0  0  0  0  4           0  0  0
  1 11  1  0     0  0
  2  3  2  0     0  0
  2  4  2  0     0  0
  2  5  1  0     0  0
  2 12  1  0     0  0
  6 26  2  0     0  0
  7 27  1  0     0  0
  7 28  1  0     0  0
  8 13  1  0     0  0
  8 14  1  0     0  0
  8 29  1  0     0  0
  9 11  1  0     0  0
  9 13  2  0     0  0
 10 15  1  0     0  0
 10 26  1  0     0  0
 11 14  2  0     0  0
 12 16  1  0     0  0
 12 18  2  0     0  0
 13 30  1  0     0  0
 14 27  1  0     0  0
 15 19  2  0     0  0
 15 20  1  0     0  0
 16 21  2  0     0  0
 16 26  1  0     0  0
 17 22  2  0     0  0
 17 23  1  0     0  0
 17 29  1  0     0  0
 18 24  1  0     0  0
 19 22  1  0     0  0
 20 23  2  0     0  0
 21 25  1  0     0  0
 24 25  2  0     0  0
 30 31  1  0     0  0
 31 32  1  0     0  0
 32 33  1  0     0  0
M  END
> <standard_type>
pIC50

> <# Confs.>
25

> <canonical_smiles>
CCCCC1=NC(Cl)=C(COC)N1CC2=CC=C(NC(C3=CC=CC=C3S(=O)(O)=O)=O)C=C2

> <standard_relation>
=

> <Publication_ID>
nan

> <predicted_activity_value>
6.4089353929735005

> <actual_activity_value>
7.920818753952375

> <Compound>
2

> <standard_units>
nM

> hash
16370352787251155381

$$$$
2_
XXILIB    08252103443D 0   0.00000     0.00000

 33 35  0     1  0            999 V2000
    5.0286   -1.4584    0.0304 Cl  0  0  0  0  0  1           0  0  0
   -4.8592    2.4854    6.9797 S   0  0  1  0  0  6           0  0  0
   -3.7633    2.8802    6.1172 O   0  0  0  0  0  2           0  0  0
   -5.4083    3.3926    7.9691 O   0  0  0  0  0  2           0  0  0
   -6.0917    1.9676    6.0461 O   0  0  0  0  0  2           0  0  0
   -4.3021    0.0129    4.9620 O   0  0  0  0  0  2           0  0  0
    1.5480   -2.8767   -1.3681 O   0  0  0  0  0  2           0  0  0
    1.4529    0.0000    0.0000 N   0  0  0  0  0  3           0  0  0
    3.5353    0.7627    0.0092 N   0  0  0  0  0  3           0  0  0
   -2.0187    0.0296    5.3527 N   0  0  0  0  0  3           0  0  0
    3.5493   -0.6087    0.0087 C   0  0  0  0  0  4           0  0  0
   -4.3165    1.0480    7.8420 C   0  0  0  0  0  4           0  0  0
    2.2669    1.1145    0.0000 C   0  0  0  0  0  4           0  0  0
    2.2633   -1.1243   -0.0084 C   0  0  0  0  0  4           0  0  0
   -1.5586    0.0226    4.0221 C   0  0  0  0  0  4           0  0  0
   -3.5985    0.0304    7.1951 C   0  0  0  0  0  4           0  0  0
   -0.5407    0.0000    1.3974 C   0  0  0  0  0  4           0  0  0
   -4.5637    0.9709    9.2161 C   0  0  0  0  0  4           0  0  0
   -2.4307    0.0093    2.9287 C   0  0  0  0  0  4           0  0  0
   -0.1782    0.0302    3.7996 C   0  0  0  0  0  4           0  0  0
   -3.1309   -1.0603    7.9427 C   0  0  0  0  0  4           0  0  0
   -1.9229   -0.0000    1.6265 C   0  0  0  0  0  4           0  0  0
    0.3265    0.0226    2.4967 C   0  0  0  0  0  4           0  0  0
   -4.0926   -0.1190    9.9481 C   0  0  0  0  0  4           0  0  0
   -3.3761   -1.1310    9.3141 C   0  0  0  0  0  4           0  0  0
   -3.3457    0.0244    5.7341 C   0  0  0  0  0  4           0  0  0
    1.7112   -2.4980   -0.0074 C   0  0  0  0  0  4           0  0  0
    1.0187   -4.1914   -1.4857 C   0  0  0  0  0  4           0  0  0
    0.0000    0.0000    0.0000 C   0  0  0  0  0  4           0  0  0
    1.7843    2.5209   -0.0048 C   0  0  0  0  0  4           0  0  0
    1.6000    3.0677   -1.4172 C   0  0  0  0  0  4           0  0  0
    2.8747    3.0753   -2.2607 C   0  0  0  0  0  4           0  0  0
    2.6170    3.6315   -3.6518 C   0  0  0  0  0  4           0  0  0
  1 11  1  0     0  0
  2  3  2  0     0  0
  2  4  2  0     0  0
  2  5  1  0     0  0
  2 12  1  0     0  0
  6 26  2  0     0  0
  7 27  1  0     0  0
  7 28  1  0     0  0
  8 13  1  0     0  0
  8 14  1  0     0  0
  8 29  1  0     0  0
  9 11  1  0     0  0
  9 13  2  0     0  0
 10 15  1  0     0  0
 10 26  1  0     0  0
 11 14  2  0     0  0
 12 16  1  0     0  0
 12 18  2  0     0  0
 13 30  1  0     0  0
 14 27  1  0     0  0
 15 19  2  0     0  0
 15 20  1  0     0  0
 16 21  2  0     0  0
 16 26  1  0     0  0
 17 22  2  0     0  0
 17 23  1  0     0  0
 17 29  1  0     0  0
 18 24  1  0     0  0
 19 22  1  0     0  0
 20 23  2  0     0  0
 21 25  1  0     0  0
 24 25  2  0     0  0
 30 31  1  0     0  0
 31 32  1  0     0  0
 32 33  1  0     0  0
M  END
> <standard_type>
pIC50

> <# Confs.>
25

> <canonical_smiles>
CCCCC1=NC(Cl)=C(COC)N1CC2=CC=C(NC(C3=CC=CC=C3S(=O)(O)=O)=O)C=C2

> <standard_relation>
=

> <Publication_ID>
nan

> <predicted_activity_value>
6.4089353929735005

> <actual_activity_value>
7.920818753952375

> <Compound>
2

> <standard_units>
nM

> hash
16370352787251155381

$$$$
2_
XXILIB    08252103443D 0   0.00000     0.00000

 33 35  0     1  0            999 V2000
    5.0286    1.4584   -0.0304 Cl  0  0  0  0  0  1           0  0  0
   -4.8592    2.4854    6.9797 S   0  0  1  0  0  6           0  0  0
   -3.7633    2.8802    6.1172 O   0  0  0  0  0  2           0  0  0
   -5.4083    3.3926    7.9691 O   0  0  0  0  0  2           0  0  0
   -6.0917    1.9676    6.0461 O   0  0  0  0  0  2           0  0  0
   -4.3021    0.0129    4.9620 O   0  0  0  0  0  2           0  0  0
    1.5677    2.8828   -1.3538 O   0  0  0  0  0  2           0  0  0
    1.4529   -0.0000    0.0000 N   0  0  0  0  0  3           0  0  0
    3.5353   -0.7627   -0.0092 N   0  0  0  0  0  3           0  0  0
   -2.0187    0.0296    5.3527 N   0  0  0  0  0  3           0  0  0
    3.5493    0.6087   -0.0087 C   0  0  0  0  0  4           0  0  0
   -4.3165    1.0480    7.8420 C   0  0  0  0  0  4           0  0  0
    2.2669   -1.1145    0.0000 C   0  0  0  0  0  4           0  0  0
    2.2633    1.1243    0.0084 C   0  0  0  0  0  4           0  0  0
   -1.5586    0.0226    4.0221 C   0  0  0  0  0  4           0  0  0
   -3.5985    0.0304    7.1951 C   0  0  0  0  0  4           0  0  0
   -0.5407    0.0000    1.3974 C   0  0  0  0  0  4           0  0  0
   -4.5637    0.9709    9.2161 C   0  0  0  0  0  4           0  0  0
   -2.4307    0.0093    2.9287 C   0  0  0  0  0  4           0  0  0
   -0.1782    0.0302    3.7996 C   0  0  0  0  0  4           0  0  0
   -3.1309   -1.0603    7.9427 C   0  0  0  0  0  4           0  0  0
   -1.9229   -0.0000    1.6265 C   0  0  0  0  0  4           0  0  0
    0.3265    0.0226    2.4967 C   0  0  0  0  0  4           0  0  0
   -4.0926   -0.1190    9.9481 C   0  0  0  0  0  4           0  0  0
   -3.3761   -1.1310    9.3141 C   0  0  0  0  0  4           0  0  0
   -3.3457    0.0244    5.7341 C   0  0  0  0  0  4           0  0  0
    1.7112    2.4980    0.0074 C   0  0  0  0  0  4           0  0  0
    1.0401    4.1979   -1.4733 C   0  0  0  0  0  4           0  0  0
    0.0000    0.0000    0.0000 C   0  0  0  0  0  4           0  0  0
    1.7843   -2.5209    0.0048 C   0  0  0  0  0  4           0  0  0
    2.5420   -3.3924    1.0018 C   0  0  0  0  0  4           0  0  0
    2.4379   -2.9248    2.4533 C   0  0  0  0  0  4           0  0  0
    3.2149   -3.8376    3.3882 C   0  0  0  0  0  4           0  0  0
  1 11  1  0     0  0
  2  3  2  0     0  0
  2  4  2  0     0  0
  2  5  1  0     0  0
  2 12  1  0     0  0
  6 26  2  0     0  0
  7 27  1  0     0  0
  7 28  1  0     0  0
  8 13  1  0     0  0
  8 14  1  0     0  0
  8 29  1  0     0  0
  9 11  1  0     0  0
  9 13  2  0     0  0
 10 15  1  0     0  0
 10 26  1  0     0  0
 11 14  2  0     0  0
 12 16  1  0     0  0
 12 18  2  0     0  0
 13 30  1  0     0  0
 14 27  1  0     0  0
 15 19  2  0     0  0
 15 20  1  0     0  0
 16 21  2  0     0  0
 16 26  1  0     0  0
 17 22  2  0     0  0
 17 23  1  0     0  0
 17 29  1  0     0  0
 18 24  1  0     0  0
 19 22  1  0     0  0
 20 23  2  0     0  0
 21 25  1  0     0  0
 24 25  2  0     0  0
 30 31  1  0     0  0
 31 32  1  0     0  0
 32 33  1  0     0  0
M  END
> <standard_type>
pIC50

> <# Confs.>
25

> <canonical_smiles>
CCCCC1=NC(Cl)=C(COC)N1CC2=CC=C(NC(C3=CC=CC=C3S(=O)(O)=O)=O)C=C2

> <standard_relation>
=

> <Publication_ID>
nan

> <predicted_activity_value>
6.4089353929735005

> <actual_activity_value>
7.920818753952375

> <Compound>
2

> <standard_units>
nM

> hash
16370352787251155381

$$$$
2_
XXILIB    08252103443D 0   0.00000     0.00000

 33 35  0     1  0            999 V2000
    5.0286    1.4584   -0.0304 Cl  0  0  0  0  0  1           0  0  0
   -4.8592    2.4854    6.9797 S   0  0  1  0  0  6           0  0  0
   -3.7633    2.8802    6.1172 O   0  0  0  0  0  2           0  0  0
   -5.4083    3.3926    7.9691 O   0  0  0  0  0  2           0  0  0
   -6.0917    1.9676    6.0461 O   0  0  0  0  0  2           0  0  0
   -4.3021    0.0129    4.9620 O   0  0  0  0  0  2           0  0  0
    1.5677    2.8828   -1.3538 O   0  0  0  0  0  2           0  0  0
    1.4529   -0.0000    0.0000 N   0  0  0  0  0  3           0  0  0
    3.5353   -0.7627   -0.0092 N   0  0  0  0  0  3           0  0  0
   -2.0187    0.0296    5.3527 N   0  0  0  0  0  3           0  0  0
    3.5493    0.6087   -0.0087 C   0  0  0  0  0  4           0  0  0
   -4.3165    1.0480    7.8420 C   0  0  0  0  0  4           0  0  0
    2.2669   -1.1145    0.0000 C   0  0  0  0  0  4           0  0  0
    2.2633    1.1243    0.0084 C   0  0  0  0  0  4           0  0  0
   -1.5586    0.0226    4.0221 C   0  0  0  0  0  4           0  0  0
   -3.5985    0.0304    7.1951 C   0  0  0  0  0  4           0  0  0
   -0.5407    0.0000    1.3974 C   0  0  0  0  0  4           0  0  0
   -4.5637    0.9709    9.2161 C   0  0  0  0  0  4           0  0  0
   -2.4307    0.0093    2.9287 C   0  0  0  0  0  4           0  0  0
   -0.1782    0.0302    3.7996 C   0  0  0  0  0  4           0  0  0
   -3.1309   -1.0603    7.9427 C   0  0  0  0  0  4           0  0  0
   -1.9229   -0.0000    1.6265 C   0  0  0  0  0  4           0  0  0
    0.3265    0.0226    2.4967 C   0  0  0  0  0  4           0  0  0
   -4.0926   -0.1190    9.9481 C   0  0  0  0  0  4           0  0  0
   -3.3761   -1.1310    9.3141 C   0  0  0  0  0  4           0  0  0
   -3.3457    0.0244    5.7341 C   0  0  0  0  0  4           0  0  0
    1.7112    2.4980    0.0074 C   0  0  0  0  0  4           0  0  0
    1.0401    4.1979   -1.4733 C   0  0  0  0  0  4           0  0  0
    0.0000    0.0000    0.0000 C   0  0  0  0  0  4           0  0  0
    1.7843   -2.5209    0.0048 C   0  0  0  0  0  4           0  0  0
    2.9296   -3.5288    0.0035 C   0  0  0  0  0  4           0  0  0
    2.4821   -4.9903    0.0084 C   0  0  0  0  0  4           0  0  0
    3.6724   -5.9359    0.0068 C   0  0  0  0  0  4           0  0  0
  1 11  1  0     0  0
  2  3  2  0     0  0
  2  4  2  0     0  0
  2  5  1  0     0  0
  2 12  1  0     0  0
  6 26  2  0     0  0
  7 27  1  0     0  0
  7 28  1  0     0  0
  8 13  1  0     0  0
  8 14  1  0     0  0
  8 29  1  0     0  0
  9 11  1  0     0  0
  9 13  2  0     0  0
 10 15  1  0     0  0
 10 26  1  0     0  0
 11 14  2  0     0  0
 12 16  1  0     0  0
 12 18  2  0     0  0
 13 30  1  0     0  0
 14 27  1  0     0  0
 15 19  2  0     0  0
 15 20  1  0     0  0
 16 21  2  0     0  0
 16 26  1  0     0  0
 17 22  2  0     0  0
 17 23  1  0     0  0
 17 29  1  0     0  0
 18 24  1  0     0  0
 19 22  1  0     0  0
 20 23  2  0     0  0
 21 25  1  0     0  0
 24 25  2  0     0  0
 30 31  1  0     0  0
 31 32  1  0     0  0
 32 33  1  0     0  0
M  END
> <standard_type>
pIC50

> <# Confs.>
25

> <canonical_smiles>
CCCCC1=NC(Cl)=C(COC)N1CC2=CC=C(NC(C3=CC=CC=C3S(=O)(O)=O)=O)C=C2

> <standard_relation>
=

> <Publication_ID>
nan

> <predicted_activity_value>
6.4089353929735005

> <actual_activity_value>
7.920818753952375

> <Compound>
2

> <standard_units>
nM

> hash
16370352787251155381

$$$$
2_
XXILIB    08252103443D 0   0.00000     0.00000

 33 35  0     1  0            999 V2000
    5.0286   -1.4584    0.0304 Cl  0  0  0  0  0  1           0  0  0
   -4.8592    2.4854    6.9797 S   0  0  1  0  0  6           0  0  0
   -3.7633    2.8802    6.1172 O   0  0  0  0  0  2           0  0  0
   -5.4083    3.3926    7.9691 O   0  0  0  0  0  2           0  0  0
   -6.0917    1.9676    6.0461 O   0  0  0  0  0  2           0  0  0
   -4.3021    0.0129    4.9620 O   0  0  0  0  0  2           0  0  0
    1.5480   -2.8767   -1.3681 O   0  0  0  0  0  2           0  0  0
    1.4529    0.0000    0.0000 N   0  0  0  0  0  3           0  0  0
    3.5353    0.7627    0.0092 N   0  0  0  0  0  3           0  0  0
   -2.0187    0.0296    5.3527 N   0  0  0  0  0  3           0  0  0
    3.5493   -0.6087    0.0087 C   0  0  0  0  0  4           0  0  0
   -4.3165    1.0480    7.8420 C   0  0  0  0  0  4           0  0  0
    2.2669    1.1145    0.0000 C   0  0  0  0  0  4           0  0  0
    2.2633   -1.1243   -0.0084 C   0  0  0  0  0  4           0  0  0
   -1.5586    0.0226    4.0221 C   0  0  0  0  0  4           0  0  0
   -3.5985    0.0304    7.1951 C   0  0  0  0  0  4           0  0  0
   -0.5407    0.0000    1.3974 C   0  0  0  0  0  4           0  0  0
   -4.5637    0.9709    9.2161 C   0  0  0  0  0  4           0  0  0
   -2.4307    0.0093    2.9287 C   0  0  0  0  0  4           0  0  0
   -0.1782    0.0302    3.7996 C   0  0  0  0  0  4           0  0  0
   -3.1309   -1.0603    7.9427 C   0  0  0  0  0  4           0  0  0
   -1.9229   -0.0000    1.6265 C   0  0  0  0  0  4           0  0  0
    0.3265    0.0226    2.4967 C   0  0  0  0  0  4           0  0  0
   -4.0926   -0.1190    9.9481 C   0  0  0  0  0  4           0  0  0
   -3.3761   -1.1310    9.3141 C   0  0  0  0  0  4           0  0  0
   -3.3457    0.0244    5.7341 C   0  0  0  0  0  4           0  0  0
    1.7112   -2.4980   -0.0074 C   0  0  0  0  0  4           0  0  0
    1.0187   -4.1914   -1.4857 C   0  0  0  0  0  4           0  0  0
    0.0000    0.0000    0.0000 C   0  0  0  0  0  4           0  0  0
    1.7843    2.5209   -0.0048 C   0  0  0  0  0  4           0  0  0
    2.9296    3.5288   -0.0035 C   0  0  0  0  0  4           0  0  0
    2.4821    4.9903   -0.0084 C   0  0  0  0  0  4           0  0  0
    3.6724    5.9359   -0.0068 C   0  0  0  0  0  4           0  0  0
  1 11  1  0     0  0
  2  3  2  0     0  0
  2  4  2  0     0  0
  2  5  1  0     0  0
  2 12  1  0     0  0
  6 26  2  0     0  0
  7 27  1  0     0  0
  7 28  1  0     0  0
  8 13  1  0     0  0
  8 14  1  0     0  0
  8 29  1  0     0  0
  9 11  1  0     0  0
  9 13  2  0     0  0
 10 15  1  0     0  0
 10 26  1  0     0  0
 11 14  2  0     0  0
 12 16  1  0     0  0
 12 18  2  0     0  0
 13 30  1  0     0  0
 14 27  1  0     0  0
 15 19  2  0     0  0
 15 20  1  0     0  0
 16 21  2  0     0  0
 16 26  1  0     0  0
 17 22  2  0     0  0
 17 23  1  0     0  0
 17 29  1  0     0  0
 18 24  1  0     0  0
 19 22  1  0     0  0
 20 23  2  0     0  0
 21 25  1  0     0  0
 24 25  2  0     0  0
 30 31  1  0     0  0
 31 32  1  0     0  0
 32 33  1  0     0  0
M  END
> <standard_type>
pIC50

> <# Confs.>
25

> <canonical_smiles>
CCCCC1=NC(Cl)=C(COC)N1CC2=CC=C(NC(C3=CC=CC=C3S(=O)(O)=O)=O)C=C2

> <standard_relation>
=

> <Publication_ID>
nan

> <predicted_activity_value>
6.4089353929735005

> <actual_activity_value>
7.920818753952375

> <Compound>
2

> <standard_units>
nM

> hash
16370352787251155381

$$$$
2_
XXILIB    08252103443D 0   0.00000     0.00000

 33 35  0     1  0            999 V2000
    5.0286   -1.4584    0.0304 Cl  0  0  0  0  0  1           0  0  0
   -4.8592    2.4854    6.9797 S   0  0  1  0  0  6           0  0  0
   -3.7633    2.8802    6.1172 O   0  0  0  0  0  2           0  0  0
   -5.4083    3.3926    7.9691 O   0  0  0  0  0  2           0  0  0
   -6.0917    1.9676    6.0461 O   0  0  0  0  0  2           0  0  0
   -4.3021    0.0129    4.9620 O   0  0  0  0  0  2           0  0  0
    1.5480   -2.8767   -1.3681 O   0  0  0  0  0  2           0  0  0
    1.4529    0.0000    0.0000 N   0  0  0  0  0  3           0  0  0
    3.5353    0.7627    0.0092 N   0  0  0  0  0  3           0  0  0
   -2.0187    0.0296    5.3527 N   0  0  0  0  0  3           0  0  0
    3.5493   -0.6087    0.0087 C   0  0  0  0  0  4           0  0  0
   -4.3165    1.0480    7.8420 C   0  0  0  0  0  4           0  0  0
    2.2669    1.1145    0.0000 C   0  0  0  0  0  4           0  0  0
    2.2633   -1.1243   -0.0084 C   0  0  0  0  0  4           0  0  0
   -1.5586    0.0226    4.0221 C   0  0  0  0  0  4           0  0  0
   -3.5985    0.0304    7.1951 C   0  0  0  0  0  4           0  0  0
   -0.5407    0.0000    1.3974 C   0  0  0  0  0  4           0  0  0
   -4.5637    0.9709    9.2161 C   0  0  0  0  0  4           0  0  0
   -2.4307    0.0093    2.9287 C   0  0  0  0  0  4           0  0  0
   -0.1782    0.0302    3.7996 C   0  0  0  0  0  4           0  0  0
   -3.1309   -1.0603    7.9427 C   0  0  0  0  0  4           0  0  0
   -1.9229   -0.0000    1.6265 C   0  0  0  0  0  4           0  0  0
    0.3265    0.0226    2.4967 C   0  0  0  0  0  4           0  0  0
   -4.0926   -0.1190    9.9481 C   0  0  0  0  0  4           0  0  0
   -3.3761   -1.1310    9.3141 C   0  0  0  0  0  4           0  0  0
   -3.3457    0.0244    5.7341 C   0  0  0  0  0  4           0  0  0
    1.7112   -2.4980   -0.0074 C   0  0  0  0  0  4           0  0  0
    1.0187   -4.1914   -1.4857 C   0  0  0  0  0  4           0  0  0
    0.0000    0.0000    0.0000 C   0  0  0  0  0  4           0  0  0
    1.7843    2.5209   -0.0048 C   0  0  0  0  0  4           0  0  0
    2.5356    3.3971    0.9929 C   0  0  0  0  0  4           0  0  0
    2.4222    2.9363    2.4458 C   0  0  0  0  0  4           0  0  0
    3.1932    3.8534    3.3814 C   0  0  0  0  0  4           0  0  0
  1 11  1  0     0  0
  2  3  2  0     0  0
  2  4  2  0     0  0
  2  5  1  0     0  0
  2 12  1  0     0  0
  6 26  2  0     0  0
  7 27  1  0     0  0
  7 28  1  0     0  0
  8 13  1  0     0  0
  8 14  1  0     0  0
  8 29  1  0     0  0
  9 11  1  0     0  0
  9 13  2  0     0  0
 10 15  1  0     0  0
 10 26  1  0     0  0
 11 14  2  0     0  0
 12 16  1  0     0  0
 12 18  2  0     0  0
 13 30  1  0     0  0
 14 27  1  0     0  0
 15 19  2  0     0  0
 15 20  1  0     0  0
 16 21  2  0     0  0
 16 26  1  0     0  0
 17 22  2  0     0  0
 17 23  1  0     0  0
 17 29  1  0     0  0
 18 24  1  0     0  0
 19 22  1  0     0  0
 20 23  2  0     0  0
 21 25  1  0     0  0
 24 25  2  0     0  0
 30 31  1  0     0  0
 31 32  1  0     0  0
 32 33  1  0     0  0
M  END
> <standard_type>
pIC50

> <# Confs.>
25

> <canonical_smiles>
CCCCC1=NC(Cl)=C(COC)N1CC2=CC=C(NC(C3=CC=CC=C3S(=O)(O)=O)=O)C=C2

> <standard_relation>
=

> <Publication_ID>
nan

> <predicted_activity_value>
6.4089353929735005

> <actual_activity_value>
7.920818753952375

> <Compound>
2

> <standard_units>
nM

> hash
16370352787251155381

$$$$
2_
XXILIB    08252103443D 0   0.00000     0.00000

 33 35  0     1  0            999 V2000
    5.0286   -1.4584    0.0304 Cl  0  0  0  0  0  1           0  0  0
   -5.9483    0.3341    6.5582 S   0  0  1  0  0  6           0  0  0
   -5.3070    1.1159    5.5198 O   0  0  0  0  0  2           0  0  0
   -7.0534    0.8659    7.3325 O   0  0  0  0  0  2           0  0  0
   -6.4334   -1.0831    5.9138 O   0  0  0  0  0  2           0  0  0
   -3.7038   -1.5617    5.1935 O   0  0  0  0  0  2           0  0  0
    1.5480   -2.8767   -1.3681 O   0  0  0  0  0  2           0  0  0
    1.4529    0.0000    0.0000 N   0  0  0  0  0  3           0  0  0
    3.5353    0.7627    0.0092 N   0  0  0  0  0  3           0  0  0
   -2.0516    0.0556    5.3400 N   0  0  0  0  0  3           0  0  0
    3.5493   -0.6087    0.0087 C   0  0  0  0  0  4           0  0  0
   -4.6810   -0.1044    7.7010 C   0  0  0  0  0  4           0  0  0
    2.2669    1.1145    0.0000 C   0  0  0  0  0  4           0  0  0
    2.2633   -1.1243   -0.0084 C   0  0  0  0  0  4           0  0  0
   -1.5730    0.0145    4.0166 C   0  0  0  0  0  4           0  0  0
   -3.4111   -0.5155    7.2676 C   0  0  0  0  0  4           0  0  0
   -0.5407    0.0000    1.3974 C   0  0  0  0  0  4           0  0  0
   -4.9499    0.0287    9.0666 C   0  0  0  0  0  4           0  0  0
   -2.1063   -0.8490    3.0543 C   0  0  0  0  0  4           0  0  0
   -0.5273    0.8735    3.6645 C   0  0  0  0  0  4           0  0  0
   -2.4170   -0.7876    8.2189 C   0  0  0  0  0  4           0  0  0
   -1.5934   -0.8530    1.7540 C   0  0  0  0  0  4           0  0  0
   -0.0177    0.8684    2.3636 C   0  0  0  0  0  4           0  0  0
   -3.9522   -0.2445   10.0025 C   0  0  0  0  0  4           0  0  0
   -2.6883   -0.6493    9.5803 C   0  0  0  0  0  4           0  0  0
   -3.0747   -0.7259    5.8389 C   0  0  0  0  0  4           0  0  0
    1.7112   -2.4980   -0.0074 C   0  0  0  0  0  4           0  0  0
    1.0187   -4.1914   -1.4857 C   0  0  0  0  0  4           0  0  0
    0.0000    0.0000    0.0000 C   0  0  0  0  0  4           0  0  0
    1.7843    2.5209   -0.0048 C   0  0  0  0  0  4           0  0  0
    2.5420    3.3924   -1.0018 C   0  0  0  0  0  4           0  0  0
    2.4379    2.9248   -2.4533 C   0  0  0  0  0  4           0  0  0
    3.2149    3.8376   -3.3882 C   0  0  0  0  0  4           0  0  0
  1 11  1  0     0  0
  2  3  2  0     0  0
  2  4  2  0     0  0
  2  5  1  0     0  0
  2 12  1  0     0  0
  6 26  2  0     0  0
  7 27  1  0     0  0
  7 28  1  0     0  0
  8 13  1  0     0  0
  8 14  1  0     0  0
  8 29  1  0     0  0
  9 11  1  0     0  0
  9 13  2  0     0  0
 10 15  1  0     0  0
 10 26  1  0     0  0
 11 14  2  0     0  0
 12 16  1  0     0  0
 12 18  2  0     0  0
 13 30  1  0     0  0
 14 27  1  0     0  0
 15 19  2  0     0  0
 15 20  1  0     0  0
 16 21  2  0     0  0
 16 26  1  0     0  0
 17 22  2  0     0  0
 17 23  1  0     0  0
 17 29  1  0     0  0
 18 24  1  0     0  0
 19 22  1  0     0  0
 20 23  2  0     0  0
 21 25  1  0     0  0
 24 25  2  0     0  0
 30 31  1  0     0  0
 31 32  1  0     0  0
 32 33  1  0     0  0
M  END
> <standard_type>
pIC50

> <# Confs.>
25

> <canonical_smiles>
CCCCC1=NC(Cl)=C(COC)N1CC2=CC=C(NC(C3=CC=CC=C3S(=O)(O)=O)=O)C=C2

> <standard_relation>
=

> <Publication_ID>
nan

> <predicted_activity_value>
6.4089353929735005

> <actual_activity_value>
7.920818753952375

> <Compound>
2

> <standard_units>
nM

> hash
16370352787251155381

$$$$
2_
XXILIB    08252103443D 0   0.00000     0.00000

 33 35  0     1  0            999 V2000
    5.0286    1.4584   -0.0304 Cl  0  0  0  0  0  1           0  0  0
   -4.8592    2.4854    6.9797 S   0  0  1  0  0  6           0  0  0
   -3.7633    2.8802    6.1172 O   0  0  0  0  0  2           0  0  0
   -5.4083    3.3926    7.9691 O   0  0  0  0  0  2           0  0  0
   -6.0917    1.9676    6.0461 O   0  0  0  0  0  2           0  0  0
   -4.3021    0.0129    4.9620 O   0  0  0  0  0  2           0  0  0
    1.5677    2.8828   -1.3538 O   0  0  0  0  0  2           0  0  0
    1.4529   -0.0000    0.0000 N   0  0  0  0  0  3           0  0  0
    3.5353   -0.7627   -0.0092 N   0  0  0  0  0  3           0  0  0
   -2.0187    0.0296    5.3527 N   0  0  0  0  0  3           0  0  0
    3.5493    0.6087   -0.0087 C   0  0  0  0  0  4           0  0  0
   -4.3165    1.0480    7.8420 C   0  0  0  0  0  4           0  0  0
    2.2669   -1.1145    0.0000 C   0  0  0  0  0  4           0  0  0
    2.2633    1.1243    0.0084 C   0  0  0  0  0  4           0  0  0
   -1.5586    0.0226    4.0221 C   0  0  0  0  0  4           0  0  0
   -3.5985    0.0304    7.1951 C   0  0  0  0  0  4           0  0  0
   -0.5407    0.0000    1.3974 C   0  0  0  0  0  4           0  0  0
   -4.5637    0.9709    9.2161 C   0  0  0  0  0  4           0  0  0
   -2.4307    0.0093    2.9287 C   0  0  0  0  0  4           0  0  0
   -0.1782    0.0302    3.7996 C   0  0  0  0  0  4           0  0  0
   -3.1309   -1.0603    7.9427 C   0  0  0  0  0  4           0  0  0
   -1.9229   -0.0000    1.6265 C   0  0  0  0  0  4           0  0  0
    0.3265    0.0226    2.4967 C   0  0  0  0  0  4           0  0  0
   -4.0926   -0.1190    9.9481 C   0  0  0  0  0  4           0  0  0
   -3.3761   -1.1310    9.3141 C   0  0  0  0  0  4           0  0  0
   -3.3457    0.0244    5.7341 C   0  0  0  0  0  4           0  0  0
    1.7112    2.4980    0.0074 C   0  0  0  0  0  4           0  0  0
    1.0401    4.1979   -1.4733 C   0  0  0  0  0  4           0  0  0
    0.0000    0.0000    0.0000 C   0  0  0  0  0  4           0  0  0
    1.7843   -2.5209    0.0048 C   0  0  0  0  0  4           0  0  0
    1.6000   -3.0677    1.4172 C   0  0  0  0  0  4           0  0  0
    1.1043   -4.5125    1.4732 C   0  0  0  0  0  4           0  0  0
    0.9441   -4.9897    2.9077 C   0  0  0  0  0  4           0  0  0
  1 11  1  0     0  0
  2  3  2  0     0  0
  2  4  2  0     0  0
  2  5  1  0     0  0
  2 12  1  0     0  0
  6 26  2  0     0  0
  7 27  1  0     0  0
  7 28  1  0     0  0
  8 13  1  0     0  0
  8 14  1  0     0  0
  8 29  1  0     0  0
  9 11  1  0     0  0
  9 13  2  0     0  0
 10 15  1  0     0  0
 10 26  1  0     0  0
 11 14  2  0     0  0
 12 16  1  0     0  0
 12 18  2  0     0  0
 13 30  1  0     0  0
 14 27  1  0     0  0
 15 19  2  0     0  0
 15 20  1  0     0  0
 16 21  2  0     0  0
 16 26  1  0     0  0
 17 22  2  0     0  0
 17 23  1  0     0  0
 17 29  1  0     0  0
 18 24  1  0     0  0
 19 22  1  0     0  0
 20 23  2  0     0  0
 21 25  1  0     0  0
 24 25  2  0     0  0
 30 31  1  0     0  0
 31 32  1  0     0  0
 32 33  1  0     0  0
M  END
> <standard_type>
pIC50

> <# Confs.>
25

> <canonical_smiles>
CCCCC1=NC(Cl)=C(COC)N1CC2=CC=C(NC(C3=CC=CC=C3S(=O)(O)=O)=O)C=C2

> <standard_relation>
=

> <Publication_ID>
nan

> <predicted_activity_value>
6.4089353929735005

> <actual_activity_value>
7.920818753952375

> <Compound>
2

> <standard_units>
nM

> hash
16370352787251155381

$$$$
2_
XXILIB    08252103443D 0   0.00000     0.00000

 33 35  0     1  0            999 V2000
    5.0286   -1.4584    0.0304 Cl  0  0  0  0  0  1           0  0  0
   -4.8592    2.4854    6.9797 S   0  0  1  0  0  6           0  0  0
   -3.7633    2.8802    6.1172 O   0  0  0  0  0  2           0  0  0
   -5.4083    3.3926    7.9691 O   0  0  0  0  0  2           0  0  0
   -6.0917    1.9676    6.0461 O   0  0  0  0  0  2           0  0  0
   -4.3021    0.0129    4.9620 O   0  0  0  0  0  2           0  0  0
    1.5677   -2.8828    1.3538 O   0  0  0  0  0  2           0  0  0
    1.4529    0.0000   -0.0000 N   0  0  0  0  0  3           0  0  0
    3.5353    0.7627    0.0092 N   0  0  0  0  0  3           0  0  0
   -2.0187    0.0296    5.3527 N   0  0  0  0  0  3           0  0  0
    3.5493   -0.6087    0.0087 C   0  0  0  0  0  4           0  0  0
   -4.3165    1.0480    7.8420 C   0  0  0  0  0  4           0  0  0
    2.2669    1.1145    0.0000 C   0  0  0  0  0  4           0  0  0
    2.2633   -1.1243   -0.0084 C   0  0  0  0  0  4           0  0  0
   -1.5586    0.0226    4.0221 C   0  0  0  0  0  4           0  0  0
   -3.5985    0.0304    7.1951 C   0  0  0  0  0  4           0  0  0
   -0.5407    0.0000    1.3974 C   0  0  0  0  0  4           0  0  0
   -4.5637    0.9709    9.2161 C   0  0  0  0  0  4           0  0  0
   -2.4307    0.0093    2.9287 C   0  0  0  0  0  4           0  0  0
   -0.1782    0.0302    3.7996 C   0  0  0  0  0  4           0  0  0
   -3.1309   -1.0603    7.9427 C   0  0  0  0  0  4           0  0  0
   -1.9229   -0.0000    1.6265 C   0  0  0  0  0  4           0  0  0
    0.3265    0.0226    2.4967 C   0  0  0  0  0  4           0  0  0
   -4.0926   -0.1190    9.9481 C   0  0  0  0  0  4           0  0  0
   -3.3761   -1.1310    9.3141 C   0  0  0  0  0  4           0  0  0
   -3.3457    0.0244    5.7341 C   0  0  0  0  0  4           0  0  0
    1.7112   -2.4980   -0.0074 C   0  0  0  0  0  4           0  0  0
    1.0401   -4.1979    1.4733 C   0  0  0  0  0  4           0  0  0
    0.0000    0.0000    0.0000 C   0  0  0  0  0  4           0  0  0
    1.7843    2.5209   -0.0048 C   0  0  0  0  0  4           0  0  0
    1.6000    3.0677   -1.4172 C   0  0  0  0  0  4           0  0  0
    1.1043    4.5125   -1.4732 C   0  0  0  0  0  4           0  0  0
    0.9441    4.9897   -2.9077 C   0  0  0  0  0  4           0  0  0
  1 11  1  0     0  0
  2  3  2  0     0  0
  2  4  2  0     0  0
  2  5  1  0     0  0
  2 12  1  0     0  0
  6 26  2  0     0  0
  7 27  1  0     0  0
  7 28  1  0     0  0
  8 13  1  0     0  0
  8 14  1  0     0  0
  8 29  1  0     0  0
  9 11  1  0     0  0
  9 13  2  0     0  0
 10 15  1  0     0  0
 10 26  1  0     0  0
 11 14  2  0     0  0
 12 16  1  0     0  0
 12 18  2  0     0  0
 13 30  1  0     0  0
 14 27  1  0     0  0
 15 19  2  0     0  0
 15 20  1  0     0  0
 16 21  2  0     0  0
 16 26  1  0     0  0
 17 22  2  0     0  0
 17 23  1  0     0  0
 17 29  1  0     0  0
 18 24  1  0     0  0
 19 22  1  0     0  0
 20 23  2  0     0  0
 21 25  1  0     0  0
 24 25  2  0     0  0
 30 31  1  0     0  0
 31 32  1  0     0  0
 32 33  1  0     0  0
M  END
> <standard_type>
pIC50

> <# Confs.>
25

> <canonical_smiles>
CCCCC1=NC(Cl)=C(COC)N1CC2=CC=C(NC(C3=CC=CC=C3S(=O)(O)=O)=O)C=C2

> <standard_relation>
=

> <Publication_ID>
nan

> <predicted_activity_value>
6.4089353929735005

> <actual_activity_value>
7.920818753952375

> <Compound>
2

> <standard_units>
nM

> hash
16370352787251155381

$$$$
2_
XXILIB    08252103443D 0   0.00000     0.00000

 33 35  0     1  0            999 V2000
    5.0286    1.4584   -0.0304 Cl  0  0  0  0  0  1           0  0  0
   -4.8592    2.4854    6.9797 S   0  0  1  0  0  6           0  0  0
   -3.7633    2.8802    6.1172 O   0  0  0  0  0  2           0  0  0
   -5.4083    3.3926    7.9691 O   0  0  0  0  0  2           0  0  0
   -6.0917    1.9676    6.0461 O   0  0  0  0  0  2           0  0  0
   -4.3021    0.0129    4.9620 O   0  0  0  0  0  2           0  0  0
    1.5480    2.8767    1.3681 O   0  0  0  0  0  2           0  0  0
    1.4529   -0.0000   -0.0000 N   0  0  0  0  0  3           0  0  0
    3.5353   -0.7627   -0.0092 N   0  0  0  0  0  3           0  0  0
   -2.0187    0.0296    5.3527 N   0  0  0  0  0  3           0  0  0
    3.5493    0.6087   -0.0087 C   0  0  0  0  0  4           0  0  0
   -4.3165    1.0480    7.8420 C   0  0  0  0  0  4           0  0  0
    2.2669   -1.1145    0.0000 C   0  0  0  0  0  4           0  0  0
    2.2633    1.1243    0.0084 C   0  0  0  0  0  4           0  0  0
   -1.5586    0.0226    4.0221 C   0  0  0  0  0  4           0  0  0
   -3.5985    0.0304    7.1951 C   0  0  0  0  0  4           0  0  0
   -0.5407    0.0000    1.3974 C   0  0  0  0  0  4           0  0  0
   -4.5637    0.9709    9.2161 C   0  0  0  0  0  4           0  0  0
   -2.4307    0.0093    2.9287 C   0  0  0  0  0  4           0  0  0
   -0.1782    0.0302    3.7996 C   0  0  0  0  0  4           0  0  0
   -3.1309   -1.0603    7.9427 C   0  0  0  0  0  4           0  0  0
   -1.9229   -0.0000    1.6265 C   0  0  0  0  0  4           0  0  0
    0.3265    0.0226    2.4967 C   0  0  0  0  0  4           0  0  0
   -4.0926   -0.1190    9.9481 C   0  0  0  0  0  4           0  0  0
   -3.3761   -1.1310    9.3141 C   0  0  0  0  0  4           0  0  0
   -3.3457    0.0244    5.7341 C   0  0  0  0  0  4           0  0  0
    1.7112    2.4980    0.0074 C   0  0  0  0  0  4           0  0  0
    1.0187    4.1914    1.4857 C   0  0  0  0  0  4           0  0  0
    0.0000    0.0000    0.0000 C   0  0  0  0  0  4           0  0  0
    1.7843   -2.5209    0.0048 C   0  0  0  0  0  4           0  0  0
    1.5910   -3.0743   -1.4037 C   0  0  0  0  0  4           0  0  0
    1.0950   -4.5194   -1.4498 C   0  0  0  0  0  4           0  0  0
    0.9255   -5.0032   -2.8810 C   0  0  0  0  0  4           0  0  0
  1 11  1  0     0  0
  2  3  2  0     0  0
  2  4  2  0     0  0
  2  5  1  0     0  0
  2 12  1  0     0  0
  6 26  2  0     0  0
  7 27  1  0     0  0
  7 28  1  0     0  0
  8 13  1  0     0  0
  8 14  1  0     0  0
  8 29  1  0     0  0
  9 11  1  0     0  0
  9 13  2  0     0  0
 10 15  1  0     0  0
 10 26  1  0     0  0
 11 14  2  0     0  0
 12 16  1  0     0  0
 12 18  2  0     0  0
 13 30  1  0     0  0
 14 27  1  0     0  0
 15 19  2  0     0  0
 15 20  1  0     0  0
 16 21  2  0     0  0
 16 26  1  0     0  0
 17 22  2  0     0  0
 17 23  1  0     0  0
 17 29  1  0     0  0
 18 24  1  0     0  0
 19 22  1  0     0  0
 20 23  2  0     0  0
 21 25  1  0     0  0
 24 25  2  0     0  0
 30 31  1  0     0  0
 31 32  1  0     0  0
 32 33  1  0     0  0
M  END
> <standard_type>
pIC50

> <# Confs.>
25

> <canonical_smiles>
CCCCC1=NC(Cl)=C(COC)N1CC2=CC=C(NC(C3=CC=CC=C3S(=O)(O)=O)=O)C=C2

> <standard_relation>
=

> <Publication_ID>
nan

> <predicted_activity_value>
6.4089353929735005

> <actual_activity_value>
7.920818753952375

> <Compound>
2

> <standard_units>
nM

> hash
16370352787251155381

$$$$
2_
XXILIB    08252103443D 0   0.00000     0.00000

 33 35  0     1  0            999 V2000
    5.0286   -1.4584    0.0304 Cl  0  0  0  0  0  1           0  0  0
   -5.9483    0.3341    6.5582 S   0  0  1  0  0  6           0  0  0
   -5.3070    1.1159    5.5198 O   0  0  0  0  0  2           0  0  0
   -7.0534    0.8659    7.3325 O   0  0  0  0  0  2           0  0  0
   -6.4334   -1.0831    5.9138 O   0  0  0  0  0  2           0  0  0
   -3.7038   -1.5617    5.1935 O   0  0  0  0  0  2           0  0  0
    1.5480   -2.8767   -1.3681 O   0  0  0  0  0  2           0  0  0
    1.4529    0.0000    0.0000 N   0  0  0  0  0  3           0  0  0
    3.5353    0.7627    0.0092 N   0  0  0  0  0  3           0  0  0
   -2.0516    0.0556    5.3400 N   0  0  0  0  0  3           0  0  0
    3.5493   -0.6087    0.0087 C   0  0  0  0  0  4           0  0  0
   -4.6810   -0.1044    7.7010 C   0  0  0  0  0  4           0  0  0
    2.2669    1.1145    0.0000 C   0  0  0  0  0  4           0  0  0
    2.2633   -1.1243   -0.0084 C   0  0  0  0  0  4           0  0  0
   -1.5730    0.0145    4.0166 C   0  0  0  0  0  4           0  0  0
   -3.4111   -0.5155    7.2676 C   0  0  0  0  0  4           0  0  0
   -0.5407    0.0000    1.3974 C   0  0  0  0  0  4           0  0  0
   -4.9499    0.0287    9.0666 C   0  0  0  0  0  4           0  0  0
   -2.1063   -0.8490    3.0543 C   0  0  0  0  0  4           0  0  0
   -0.5273    0.8735    3.6645 C   0  0  0  0  0  4           0  0  0
   -2.4170   -0.7876    8.2189 C   0  0  0  0  0  4           0  0  0
   -1.5934   -0.8530    1.7540 C   0  0  0  0  0  4           0  0  0
   -0.0177    0.8684    2.3636 C   0  0  0  0  0  4           0  0  0
   -3.9522   -0.2445   10.0025 C   0  0  0  0  0  4           0  0  0
   -2.6883   -0.6493    9.5803 C   0  0  0  0  0  4           0  0  0
   -3.0747   -0.7259    5.8389 C   0  0  0  0  0  4           0  0  0
    1.7112   -2.4980   -0.0074 C   0  0  0  0  0  4           0  0  0
    1.0187   -4.1914   -1.4857 C   0  0  0  0  0  4           0  0  0
    0.0000    0.0000    0.0000 C   0  0  0  0  0  4           0  0  0
    1.7843    2.5209   -0.0048 C   0  0  0  0  0  4           0  0  0
    2.5420    3.3924   -1.0018 C   0  0  0  0  0  4           0  0  0
    2.0805    4.8490   -1.0428 C   0  0  0  0  0  4           0  0  0
    2.8771    5.6560   -2.0553 C   0  0  0  0  0  4           0  0  0
  1 11  1  0     0  0
  2  3  2  0     0  0
  2  4  2  0     0  0
  2  5  1  0     0  0
  2 12  1  0     0  0
  6 26  2  0     0  0
  7 27  1  0     0  0
  7 28  1  0     0  0
  8 13  1  0     0  0
  8 14  1  0     0  0
  8 29  1  0     0  0
  9 11  1  0     0  0
  9 13  2  0     0  0
 10 15  1  0     0  0
 10 26  1  0     0  0
 11 14  2  0     0  0
 12 16  1  0     0  0
 12 18  2  0     0  0
 13 30  1  0     0  0
 14 27  1  0     0  0
 15 19  2  0     0  0
 15 20  1  0     0  0
 16 21  2  0     0  0
 16 26  1  0     0  0
 17 22  2  0     0  0
 17 23  1  0     0  0
 17 29  1  0     0  0
 18 24  1  0     0  0
 19 22  1  0     0  0
 20 23  2  0     0  0
 21 25  1  0     0  0
 24 25  2  0     0  0
 30 31  1  0     0  0
 31 32  1  0     0  0
 32 33  1  0     0  0
M  END
> <standard_type>
pIC50

> <# Confs.>
25

> <canonical_smiles>
CCCCC1=NC(Cl)=C(COC)N1CC2=CC=C(NC(C3=CC=CC=C3S(=O)(O)=O)=O)C=C2

> <standard_relation>
=

> <Publication_ID>
nan

> <predicted_activity_value>
6.4089353929735005

> <actual_activity_value>
7.920818753952375

> <Compound>
2

> <standard_units>
nM

> hash
16370352787251155381

$$$$
2_
XXILIB    08252103443D 0   0.00000     0.00000

 33 35  0     1  0            999 V2000
    5.0286    1.4584   -0.0304 Cl  0  0  0  0  0  1           0  0  0
   -4.8592    2.4854    6.9797 S   0  0  1  0  0  6           0  0  0
   -3.7633    2.8802    6.1172 O   0  0  0  0  0  2           0  0  0
   -5.4083    3.3926    7.9691 O   0  0  0  0  0  2           0  0  0
   -6.0917    1.9676    6.0461 O   0  0  0  0  0  2           0  0  0
   -4.3021    0.0129    4.9620 O   0  0  0  0  0  2           0  0  0
    1.5480    2.8767    1.3681 O   0  0  0  0  0  2           0  0  0
    1.4529   -0.0000   -0.0000 N   0  0  0  0  0  3           0  0  0
    3.5353   -0.7627   -0.0092 N   0  0  0  0  0  3           0  0  0
   -2.0187    0.0296    5.3527 N   0  0  0  0  0  3           0  0  0
    3.5493    0.6087   -0.0087 C   0  0  0  0  0  4           0  0  0
   -4.3165    1.0480    7.8420 C   0  0  0  0  0  4           0  0  0
    2.2669   -1.1145    0.0000 C   0  0  0  0  0  4           0  0  0
    2.2633    1.1243    0.0084 C   0  0  0  0  0  4           0  0  0
   -1.5586    0.0226    4.0221 C   0  0  0  0  0  4           0  0  0
   -3.5985    0.0304    7.1951 C   0  0  0  0  0  4           0  0  0
   -0.5407    0.0000    1.3974 C   0  0  0  0  0  4           0  0  0
   -4.5637    0.9709    9.2161 C   0  0  0  0  0  4           0  0  0
   -2.4307    0.0093    2.9287 C   0  0  0  0  0  4           0  0  0
   -0.1782    0.0302    3.7996 C   0  0  0  0  0  4           0  0  0
   -3.1309   -1.0603    7.9427 C   0  0  0  0  0  4           0  0  0
   -1.9229   -0.0000    1.6265 C   0  0  0  0  0  4           0  0  0
    0.3265    0.0226    2.4967 C   0  0  0  0  0  4           0  0  0
   -4.0926   -0.1190    9.9481 C   0  0  0  0  0  4           0  0  0
   -3.3761   -1.1310    9.3141 C   0  0  0  0  0  4           0  0  0
   -3.3457    0.0244    5.7341 C   0  0  0  0  0  4           0  0  0
    1.7112    2.4980    0.0074 C   0  0  0  0  0  4           0  0  0
    1.0187    4.1914    1.4857 C   0  0  0  0  0  4           0  0  0
    0.0000    0.0000    0.0000 C   0  0  0  0  0  4           0  0  0
    1.7843   -2.5209    0.0048 C   0  0  0  0  0  4           0  0  0
    1.5910   -3.0743   -1.4037 C   0  0  0  0  0  4           0  0  0
    2.8602   -3.0859   -2.2553 C   0  0  0  0  0  4           0  0  0
    2.5936   -3.6486   -3.6422 C   0  0  0  0  0  4           0  0  0
  1 11  1  0     0  0
  2  3  2  0     0  0
  2  4  2  0     0  0
  2  5  1  0     0  0
  2 12  1  0     0  0
  6 26  2  0     0  0
  7 27  1  0     0  0
  7 28  1  0     0  0
  8 13  1  0     0  0
  8 14  1  0     0  0
  8 29  1  0     0  0
  9 11  1  0     0  0
  9 13  2  0     0  0
 10 15  1  0     0  0
 10 26  1  0     0  0
 11 14  2  0     0  0
 12 16  1  0     0  0
 12 18  2  0     0  0
 13 30  1  0     0  0
 14 27  1  0     0  0
 15 19  2  0     0  0
 15 20  1  0     0  0
 16 21  2  0     0  0
 16 26  1  0     0  0
 17 22  2  0     0  0
 17 23  1  0     0  0
 17 29  1  0     0  0
 18 24  1  0     0  0
 19 22  1  0     0  0
 20 23  2  0     0  0
 21 25  1  0     0  0
 24 25  2  0     0  0
 30 31  1  0     0  0
 31 32  1  0     0  0
 32 33  1  0     0  0
M  END
> <standard_type>
pIC50

> <# Confs.>
25

> <canonical_smiles>
CCCCC1=NC(Cl)=C(COC)N1CC2=CC=C(NC(C3=CC=CC=C3S(=O)(O)=O)=O)C=C2

> <standard_relation>
=

> <Publication_ID>
nan

> <predicted_activity_value>
6.4089353929735005

> <actual_activity_value>
7.920818753952375

> <Compound>
2

> <standard_units>
nM

> hash
16370352787251155381

$$$$
2_
XXILIB    08252103443D 0   0.00000     0.00000

 33 35  0     1  0            999 V2000
    5.0286   -1.4584    0.0304 Cl  0  0  0  0  0  1           0  0  0
   -4.8592    2.4854    6.9797 S   0  0  1  0  0  6           0  0  0
   -3.7633    2.8802    6.1172 O   0  0  0  0  0  2           0  0  0
   -5.4083    3.3926    7.9691 O   0  0  0  0  0  2           0  0  0
   -6.0917    1.9676    6.0461 O   0  0  0  0  0  2           0  0  0
   -4.3021    0.0129    4.9620 O   0  0  0  0  0  2           0  0  0
    1.5480   -2.8767   -1.3681 O   0  0  0  0  0  2           0  0  0
    1.4529    0.0000    0.0000 N   0  0  0  0  0  3           0  0  0
    3.5353    0.7627    0.0092 N   0  0  0  0  0  3           0  0  0
   -2.0187    0.0296    5.3527 N   0  0  0  0  0  3           0  0  0
    3.5493   -0.6087    0.0087 C   0  0  0  0  0  4           0  0  0
   -4.3165    1.0480    7.8420 C   0  0  0  0  0  4           0  0  0
    2.2669    1.1145    0.0000 C   0  0  0  0  0  4           0  0  0
    2.2633   -1.1243   -0.0084 C   0  0  0  0  0  4           0  0  0
   -1.5586    0.0226    4.0221 C   0  0  0  0  0  4           0  0  0
   -3.5985    0.0304    7.1951 C   0  0  0  0  0  4           0  0  0
   -0.5407    0.0000    1.3974 C   0  0  0  0  0  4           0  0  0
   -4.5637    0.9709    9.2161 C   0  0  0  0  0  4           0  0  0
   -2.4307    0.0093    2.9287 C   0  0  0  0  0  4           0  0  0
   -0.1782    0.0302    3.7996 C   0  0  0  0  0  4           0  0  0
   -3.1309   -1.0603    7.9427 C   0  0  0  0  0  4           0  0  0
   -1.9229   -0.0000    1.6265 C   0  0  0  0  0  4           0  0  0
    0.3265    0.0226    2.4967 C   0  0  0  0  0  4           0  0  0
   -4.0926   -0.1190    9.9481 C   0  0  0  0  0  4           0  0  0
   -3.3761   -1.1310    9.3141 C   0  0  0  0  0  4           0  0  0
   -3.3457    0.0244    5.7341 C   0  0  0  0  0  4           0  0  0
    1.7112   -2.4980   -0.0074 C   0  0  0  0  0  4           0  0  0
    1.0187   -4.1914   -1.4857 C   0  0  0  0  0  4           0  0  0
    0.0000    0.0000    0.0000 C   0  0  0  0  0  4           0  0  0
    1.7843    2.5209   -0.0048 C   0  0  0  0  0  4           0  0  0
    1.5910    3.0743    1.4037 C   0  0  0  0  0  4           0  0  0
    1.0950    4.5194    1.4498 C   0  0  0  0  0  4           0  0  0
    0.9255    5.0032    2.8810 C   0  0  0  0  0  4           0  0  0
  1 11  1  0     0  0
  2  3  2  0     0  0
  2  4  2  0     0  0
  2  5  1  0     0  0
  2 12  1  0     0  0
  6 26  2  0     0  0
  7 27  1  0     0  0
  7 28  1  0     0  0
  8 13  1  0     0  0
  8 14  1  0     0  0
  8 29  1  0     0  0
  9 11  1  0     0  0
  9 13  2  0     0  0
 10 15  1  0     0  0
 10 26  1  0     0  0
 11 14  2  0     0  0
 12 16  1  0     0  0
 12 18  2  0     0  0
 13 30  1  0     0  0
 14 27  1  0     0  0
 15 19  2  0     0  0
 15 20  1  0     0  0
 16 21  2  0     0  0
 16 26  1  0     0  0
 17 22  2  0     0  0
 17 23  1  0     0  0
 17 29  1  0     0  0
 18 24  1  0     0  0
 19 22  1  0     0  0
 20 23  2  0     0  0
 21 25  1  0     0  0
 24 25  2  0     0  0
 30 31  1  0     0  0
 31 32  1  0     0  0
 32 33  1  0     0  0
M  END
> <standard_type>
pIC50

> <# Confs.>
25

> <canonical_smiles>
CCCCC1=NC(Cl)=C(COC)N1CC2=CC=C(NC(C3=CC=CC=C3S(=O)(O)=O)=O)C=C2

> <standard_relation>
=

> <Publication_ID>
nan

> <predicted_activity_value>
6.4089353929735005

> <actual_activity_value>
7.920818753952375

> <Compound>
2

> <standard_units>
nM

> hash
16370352787251155381

$$$$
2_
XXILIB    08252103443D 0   0.00000     0.00000

 33 35  0     1  0            999 V2000
    5.0286   -1.4584    0.0304 Cl  0  0  0  0  0  1           0  0  0
   -4.8592    2.4854    6.9797 S   0  0  1  0  0  6           0  0  0
   -3.7633    2.8802    6.1172 O   0  0  0  0  0  2           0  0  0
   -5.4083    3.3926    7.9691 O   0  0  0  0  0  2           0  0  0
   -6.0917    1.9676    6.0461 O   0  0  0  0  0  2           0  0  0
   -4.3021    0.0129    4.9620 O   0  0  0  0  0  2           0  0  0
    1.5677   -2.8828    1.3538 O   0  0  0  0  0  2           0  0  0
    1.4529    0.0000   -0.0000 N   0  0  0  0  0  3           0  0  0
    3.5353    0.7627    0.0092 N   0  0  0  0  0  3           0  0  0
   -2.0187    0.0296    5.3527 N   0  0  0  0  0  3           0  0  0
    3.5493   -0.6087    0.0087 C   0  0  0  0  0  4           0  0  0
   -4.3165    1.0480    7.8420 C   0  0  0  0  0  4           0  0  0
    2.2669    1.1145    0.0000 C   0  0  0  0  0  4           0  0  0
    2.2633   -1.1243   -0.0084 C   0  0  0  0  0  4           0  0  0
   -1.5586    0.0226    4.0221 C   0  0  0  0  0  4           0  0  0
   -3.5985    0.0304    7.1951 C   0  0  0  0  0  4           0  0  0
   -0.5407    0.0000    1.3974 C   0  0  0  0  0  4           0  0  0
   -4.5637    0.9709    9.2161 C   0  0  0  0  0  4           0  0  0
   -2.4307    0.0093    2.9287 C   0  0  0  0  0  4           0  0  0
   -0.1782    0.0302    3.7996 C   0  0  0  0  0  4           0  0  0
   -3.1309   -1.0603    7.9427 C   0  0  0  0  0  4           0  0  0
   -1.9229   -0.0000    1.6265 C   0  0  0  0  0  4           0  0  0
    0.3265    0.0226    2.4967 C   0  0  0  0  0  4           0  0  0
   -4.0926   -0.1190    9.9481 C   0  0  0  0  0  4           0  0  0
   -3.3761   -1.1310    9.3141 C   0  0  0  0  0  4           0  0  0
   -3.3457    0.0244    5.7341 C   0  0  0  0  0  4           0  0  0
    1.7112   -2.4980   -0.0074 C   0  0  0  0  0  4           0  0  0
    1.0401   -4.1979    1.4733 C   0  0  0  0  0  4           0  0  0
    0.0000    0.0000    0.0000 C   0  0  0  0  0  4           0  0  0
    1.7843    2.5209   -0.0048 C   0  0  0  0  0  4           0  0  0
    1.6000    3.0677   -1.4172 C   0  0  0  0  0  4           0  0  0
    2.8747    3.0753   -2.2607 C   0  0  0  0  0  4           0  0  0
    2.6170    3.6315   -3.6518 C   0  0  0  0  0  4           0  0  0
  1 11  1  0     0  0
  2  3  2  0     0  0
  2  4  2  0     0  0
  2  5  1  0     0  0
  2 12  1  0     0  0
  6 26  2  0     0  0
  7 27  1  0     0  0
  7 28  1  0     0  0
  8 13  1  0     0  0
  8 14  1  0     0  0
  8 29  1  0     0  0
  9 11  1  0     0  0
  9 13  2  0     0  0
 10 15  1  0     0  0
 10 26  1  0     0  0
 11 14  2  0     0  0
 12 16  1  0     0  0
 12 18  2  0     0  0
 13 30  1  0     0  0
 14 27  1  0     0  0
 15 19  2  0     0  0
 15 20  1  0     0  0
 16 21  2  0     0  0
 16 26  1  0     0  0
 17 22  2  0     0  0
 17 23  1  0     0  0
 17 29  1  0     0  0
 18 24  1  0     0  0
 19 22  1  0     0  0
 20 23  2  0     0  0
 21 25  1  0     0  0
 24 25  2  0     0  0
 30 31  1  0     0  0
 31 32  1  0     0  0
 32 33  1  0     0  0
M  END
> <standard_type>
pIC50

> <# Confs.>
25

> <canonical_smiles>
CCCCC1=NC(Cl)=C(COC)N1CC2=CC=C(NC(C3=CC=CC=C3S(=O)(O)=O)=O)C=C2

> <standard_relation>
=

> <Publication_ID>
nan

> <predicted_activity_value>
6.4089353929735005

> <actual_activity_value>
7.920818753952375

> <Compound>
2

> <standard_units>
nM

> hash
16370352787251155381

$$$$
2_
XXILIB    08252103443D 0   0.00000     0.00000

 33 35  0     1  0            999 V2000
    5.0286   -1.4584    0.0304 Cl  0  0  0  0  0  1           0  0  0
   -5.9483    0.3341    6.5582 S   0  0  1  0  0  6           0  0  0
   -5.3070    1.1159    5.5198 O   0  0  0  0  0  2           0  0  0
   -7.0534    0.8659    7.3325 O   0  0  0  0  0  2           0  0  0
   -6.4334   -1.0831    5.9138 O   0  0  0  0  0  2           0  0  0
   -3.7038   -1.5617    5.1935 O   0  0  0  0  0  2           0  0  0
    1.5480   -2.8767   -1.3681 O   0  0  0  0  0  2           0  0  0
    1.4529    0.0000    0.0000 N   0  0  0  0  0  3           0  0  0
    3.5353    0.7627    0.0092 N   0  0  0  0  0  3           0  0  0
   -2.0516    0.0556    5.3400 N   0  0  0  0  0  3           0  0  0
    3.5493   -0.6087    0.0087 C   0  0  0  0  0  4           0  0  0
   -4.6810   -0.1044    7.7010 C   0  0  0  0  0  4           0  0  0
    2.2669    1.1145    0.0000 C   0  0  0  0  0  4           0  0  0
    2.2633   -1.1243   -0.0084 C   0  0  0  0  0  4           0  0  0
   -1.5730    0.0145    4.0166 C   0  0  0  0  0  4           0  0  0
   -3.4111   -0.5155    7.2676 C   0  0  0  0  0  4           0  0  0
   -0.5407    0.0000    1.3974 C   0  0  0  0  0  4           0  0  0
   -4.9499    0.0287    9.0666 C   0  0  0  0  0  4           0  0  0
   -2.1063   -0.8490    3.0543 C   0  0  0  0  0  4           0  0  0
   -0.5273    0.8735    3.6645 C   0  0  0  0  0  4           0  0  0
   -2.4170   -0.7876    8.2189 C   0  0  0  0  0  4           0  0  0
   -1.5934   -0.8530    1.7540 C   0  0  0  0  0  4           0  0  0
   -0.0177    0.8684    2.3636 C   0  0  0  0  0  4           0  0  0
   -3.9522   -0.2445   10.0025 C   0  0  0  0  0  4           0  0  0
   -2.6883   -0.6493    9.5803 C   0  0  0  0  0  4           0  0  0
   -3.0747   -0.7259    5.8389 C   0  0  0  0  0  4           0  0  0
    1.7112   -2.4980   -0.0074 C   0  0  0  0  0  4           0  0  0
    1.0187   -4.1914   -1.4857 C   0  0  0  0  0  4           0  0  0
    0.0000    0.0000    0.0000 C   0  0  0  0  0  4           0  0  0
    1.7843    2.5209   -0.0048 C   0  0  0  0  0  4           0  0  0
    2.5356    3.3971    0.9929 C   0  0  0  0  0  4           0  0  0
    2.0739    4.8538    1.0241 C   0  0  0  0  0  4           0  0  0
    2.8640    5.6655    2.0379 C   0  0  0  0  0  4           0  0  0
  1 11  1  0     0  0
  2  3  2  0     0  0
  2  4  2  0     0  0
  2  5  1  0     0  0
  2 12  1  0     0  0
  6 26  2  0     0  0
  7 27  1  0     0  0
  7 28  1  0     0  0
  8 13  1  0     0  0
  8 14  1  0     0  0
  8 29  1  0     0  0
  9 11  1  0     0  0
  9 13  2  0     0  0
 10 15  1  0     0  0
 10 26  1  0     0  0
 11 14  2  0     0  0
 12 16  1  0     0  0
 12 18  2  0     0  0
 13 30  1  0     0  0
 14 27  1  0     0  0
 15 19  2  0     0  0
 15 20  1  0     0  0
 16 21  2  0     0  0
 16 26  1  0     0  0
 17 22  2  0     0  0
 17 23  1  0     0  0
 17 29  1  0     0  0
 18 24  1  0     0  0
 19 22  1  0     0  0
 20 23  2  0     0  0
 21 25  1  0     0  0
 24 25  2  0     0  0
 30 31  1  0     0  0
 31 32  1  0     0  0
 32 33  1  0     0  0
M  END
> <standard_type>
pIC50

> <# Confs.>
25

> <canonical_smiles>
CCCCC1=NC(Cl)=C(COC)N1CC2=CC=C(NC(C3=CC=CC=C3S(=O)(O)=O)=O)C=C2

> <standard_relation>
=

> <Publication_ID>
nan

> <predicted_activity_value>
6.4089353929735005

> <actual_activity_value>
7.920818753952375

> <Compound>
2

> <standard_units>
nM

> hash
16370352787251155381

$$$$
2_
XXILIB    08252103443D 0   0.00000     0.00000

 33 35  0     1  0            999 V2000
    5.0286    1.4584   -0.0304 Cl  0  0  0  0  0  1           0  0  0
   -4.8592    2.4854    6.9797 S   0  0  1  0  0  6           0  0  0
   -3.7633    2.8802    6.1172 O   0  0  0  0  0  2           0  0  0
   -5.4083    3.3926    7.9691 O   0  0  0  0  0  2           0  0  0
   -6.0917    1.9676    6.0461 O   0  0  0  0  0  2           0  0  0
   -4.3021    0.0129    4.9620 O   0  0  0  0  0  2           0  0  0
    1.5480    2.8767    1.3681 O   0  0  0  0  0  2           0  0  0
    1.4529   -0.0000   -0.0000 N   0  0  0  0  0  3           0  0  0
    3.5353   -0.7627   -0.0092 N   0  0  0  0  0  3           0  0  0
   -2.0187    0.0296    5.3527 N   0  0  0  0  0  3           0  0  0
    3.5493    0.6087   -0.0087 C   0  0  0  0  0  4           0  0  0
   -4.3165    1.0480    7.8420 C   0  0  0  0  0  4           0  0  0
    2.2669   -1.1145    0.0000 C   0  0  0  0  0  4           0  0  0
    2.2633    1.1243    0.0084 C   0  0  0  0  0  4           0  0  0
   -1.5586    0.0226    4.0221 C   0  0  0  0  0  4           0  0  0
   -3.5985    0.0304    7.1951 C   0  0  0  0  0  4           0  0  0
   -0.5407    0.0000    1.3974 C   0  0  0  0  0  4           0  0  0
   -4.5637    0.9709    9.2161 C   0  0  0  0  0  4           0  0  0
   -2.4307    0.0093    2.9287 C   0  0  0  0  0  4           0  0  0
   -0.1782    0.0302    3.7996 C   0  0  0  0  0  4           0  0  0
   -3.1309   -1.0603    7.9427 C   0  0  0  0  0  4           0  0  0
   -1.9229   -0.0000    1.6265 C   0  0  0  0  0  4           0  0  0
    0.3265    0.0226    2.4967 C   0  0  0  0  0  4           0  0  0
   -4.0926   -0.1190    9.9481 C   0  0  0  0  0  4           0  0  0
   -3.3761   -1.1310    9.3141 C   0  0  0  0  0  4           0  0  0
   -3.3457    0.0244    5.7341 C   0  0  0  0  0  4           0  0  0
    1.7112    2.4980    0.0074 C   0  0  0  0  0  4           0  0  0
    1.0187    4.1914    1.4857 C   0  0  0  0  0  4           0  0  0
    0.0000    0.0000    0.0000 C   0  0  0  0  0  4           0  0  0
    1.7843   -2.5209    0.0048 C   0  0  0  0  0  4           0  0  0
    2.5420   -3.3924    1.0018 C   0  0  0  0  0  4           0  0  0
    2.4379   -2.9248    2.4533 C   0  0  0  0  0  4           0  0  0
    3.2149   -3.8376    3.3882 C   0  0  0  0  0  4           0  0  0
  1 11  1  0     0  0
  2  3  2  0     0  0
  2  4  2  0     0  0
  2  5  1  0     0  0
  2 12  1  0     0  0
  6 26  2  0     0  0
  7 27  1  0     0  0
  7 28  1  0     0  0
  8 13  1  0     0  0
  8 14  1  0     0  0
  8 29  1  0     0  0
  9 11  1  0     0  0
  9 13  2  0     0  0
 10 15  1  0     0  0
 10 26  1  0     0  0
 11 14  2  0     0  0
 12 16  1  0     0  0
 12 18  2  0     0  0
 13 30  1  0     0  0
 14 27  1  0     0  0
 15 19  2  0     0  0
 15 20  1  0     0  0
 16 21  2  0     0  0
 16 26  1  0     0  0
 17 22  2  0     0  0
 17 23  1  0     0  0
 17 29  1  0     0  0
 18 24  1  0     0  0
 19 22  1  0     0  0
 20 23  2  0     0  0
 21 25  1  0     0  0
 24 25  2  0     0  0
 30 31  1  0     0  0
 31 32  1  0     0  0
 32 33  1  0     0  0
M  END
> <standard_type>
pIC50

> <# Confs.>
25

> <canonical_smiles>
CCCCC1=NC(Cl)=C(COC)N1CC2=CC=C(NC(C3=CC=CC=C3S(=O)(O)=O)=O)C=C2

> <standard_relation>
=

> <Publication_ID>
nan

> <predicted_activity_value>
6.4089353929735005

> <actual_activity_value>
7.920818753952375

> <Compound>
2

> <standard_units>
nM

> hash
16370352787251155381

$$$$
2_
XXILIB    08252103443D 0   0.00000     0.00000

 33 35  0     1  0            999 V2000
    5.0286   -1.4584    0.0304 Cl  0  0  0  0  0  1           0  0  0
   -4.8592    2.4854    6.9797 S   0  0  1  0  0  6           0  0  0
   -3.7633    2.8802    6.1172 O   0  0  0  0  0  2           0  0  0
   -5.4083    3.3926    7.9691 O   0  0  0  0  0  2           0  0  0
   -6.0917    1.9676    6.0461 O   0  0  0  0  0  2           0  0  0
   -4.3021    0.0129    4.9620 O   0  0  0  0  0  2           0  0  0
    1.5677   -2.8828    1.3538 O   0  0  0  0  0  2           0  0  0
    1.4529    0.0000   -0.0000 N   0  0  0  0  0  3           0  0  0
    3.5353    0.7627    0.0092 N   0  0  0  0  0  3           0  0  0
   -2.0187    0.0296    5.3527 N   0  0  0  0  0  3           0  0  0
    3.5493   -0.6087    0.0087 C   0  0  0  0  0  4           0  0  0
   -4.3165    1.0480    7.8420 C   0  0  0  0  0  4           0  0  0
    2.2669    1.1145    0.0000 C   0  0  0  0  0  4           0  0  0
    2.2633   -1.1243   -0.0084 C   0  0  0  0  0  4           0  0  0
   -1.5586    0.0226    4.0221 C   0  0  0  0  0  4           0  0  0
   -3.5985    0.0304    7.1951 C   0  0  0  0  0  4           0  0  0
   -0.5407    0.0000    1.3974 C   0  0  0  0  0  4           0  0  0
   -4.5637    0.9709    9.2161 C   0  0  0  0  0  4           0  0  0
   -2.4307    0.0093    2.9287 C   0  0  0  0  0  4           0  0  0
   -0.1782    0.0302    3.7996 C   0  0  0  0  0  4           0  0  0
   -3.1309   -1.0603    7.9427 C   0  0  0  0  0  4           0  0  0
   -1.9229   -0.0000    1.6265 C   0  0  0  0  0  4           0  0  0
    0.3265    0.0226    2.4967 C   0  0  0  0  0  4           0  0  0
   -4.0926   -0.1190    9.9481 C   0  0  0  0  0  4           0  0  0
   -3.3761   -1.1310    9.3141 C   0  0  0  0  0  4           0  0  0
   -3.3457    0.0244    5.7341 C   0  0  0  0  0  4           0  0  0
    1.7112   -2.4980   -0.0074 C   0  0  0  0  0  4           0  0  0
    1.0401   -4.1979    1.4733 C   0  0  0  0  0  4           0  0  0
    0.0000    0.0000    0.0000 C   0  0  0  0  0  4           0  0  0
    1.7843    2.5209   -0.0048 C   0  0  0  0  0  4           0  0  0
    2.9296    3.5288   -0.0035 C   0  0  0  0  0  4           0  0  0
    2.4821    4.9903   -0.0084 C   0  0  0  0  0  4           0  0  0
    3.6724    5.9359   -0.0068 C   0  0  0  0  0  4           0  0  0
  1 11  1  0     0  0
  2  3  2  0     0  0
  2  4  2  0     0  0
  2  5  1  0     0  0
  2 12  1  0     0  0
  6 26  2  0     0  0
  7 27  1  0     0  0
  7 28  1  0     0  0
  8 13  1  0     0  0
  8 14  1  0     0  0
  8 29  1  0     0  0
  9 11  1  0     0  0
  9 13  2  0     0  0
 10 15  1  0     0  0
 10 26  1  0     0  0
 11 14  2  0     0  0
 12 16  1  0     0  0
 12 18  2  0     0  0
 13 30  1  0     0  0
 14 27  1  0     0  0
 15 19  2  0     0  0
 15 20  1  0     0  0
 16 21  2  0     0  0
 16 26  1  0     0  0
 17 22  2  0     0  0
 17 23  1  0     0  0
 17 29  1  0     0  0
 18 24  1  0     0  0
 19 22  1  0     0  0
 20 23  2  0     0  0
 21 25  1  0     0  0
 24 25  2  0     0  0
 30 31  1  0     0  0
 31 32  1  0     0  0
 32 33  1  0     0  0
M  END
> <standard_type>
pIC50

> <# Confs.>
25

> <canonical_smiles>
CCCCC1=NC(Cl)=C(COC)N1CC2=CC=C(NC(C3=CC=CC=C3S(=O)(O)=O)=O)C=C2

> <standard_relation>
=

> <Publication_ID>
nan

> <predicted_activity_value>
6.4089353929735005

> <actual_activity_value>
7.920818753952375

> <Compound>
2

> <standard_units>
nM

> hash
16370352787251155381

$$$$
2_
XXILIB    08252103443D 0   0.00000     0.00000

 33 35  0     1  0            999 V2000
    5.0286    1.4584   -0.0304 Cl  0  0  0  0  0  1           0  0  0
   -4.8592    2.4854    6.9797 S   0  0  1  0  0  6           0  0  0
   -3.7633    2.8802    6.1172 O   0  0  0  0  0  2           0  0  0
   -5.4083    3.3926    7.9691 O   0  0  0  0  0  2           0  0  0
   -6.0917    1.9676    6.0461 O   0  0  0  0  0  2           0  0  0
   -4.3021    0.0129    4.9620 O   0  0  0  0  0  2           0  0  0
    1.5480    2.8767    1.3681 O   0  0  0  0  0  2           0  0  0
    1.4529   -0.0000   -0.0000 N   0  0  0  0  0  3           0  0  0
    3.5353   -0.7627   -0.0092 N   0  0  0  0  0  3           0  0  0
   -2.0187    0.0296    5.3527 N   0  0  0  0  0  3           0  0  0
    3.5493    0.6087   -0.0087 C   0  0  0  0  0  4           0  0  0
   -4.3165    1.0480    7.8420 C   0  0  0  0  0  4           0  0  0
    2.2669   -1.1145    0.0000 C   0  0  0  0  0  4           0  0  0
    2.2633    1.1243    0.0084 C   0  0  0  0  0  4           0  0  0
   -1.5586    0.0226    4.0221 C   0  0  0  0  0  4           0  0  0
   -3.5985    0.0304    7.1951 C   0  0  0  0  0  4           0  0  0
   -0.5407    0.0000    1.3974 C   0  0  0  0  0  4           0  0  0
   -4.5637    0.9709    9.2161 C   0  0  0  0  0  4           0  0  0
   -2.4307    0.0093    2.9287 C   0  0  0  0  0  4           0  0  0
   -0.1782    0.0302    3.7996 C   0  0  0  0  0  4           0  0  0
   -3.1309   -1.0603    7.9427 C   0  0  0  0  0  4           0  0  0
   -1.9229   -0.0000    1.6265 C   0  0  0  0  0  4           0  0  0
    0.3265    0.0226    2.4967 C   0  0  0  0  0  4           0  0  0
   -4.0926   -0.1190    9.9481 C   0  0  0  0  0  4           0  0  0
   -3.3761   -1.1310    9.3141 C   0  0  0  0  0  4           0  0  0
   -3.3457    0.0244    5.7341 C   0  0  0  0  0  4           0  0  0
    1.7112    2.4980    0.0074 C   0  0  0  0  0  4           0  0  0
    1.0187    4.1914    1.4857 C   0  0  0  0  0  4           0  0  0
    0.0000    0.0000    0.0000 C   0  0  0  0  0  4           0  0  0
    1.7843   -2.5209    0.0048 C   0  0  0  0  0  4           0  0  0
    2.9296   -3.5288    0.0035 C   0  0  0  0  0  4           0  0  0
    2.4821   -4.9903    0.0084 C   0  0  0  0  0  4           0  0  0
    3.6724   -5.9359    0.0068 C   0  0  0  0  0  4           0  0  0
  1 11  1  0     0  0
  2  3  2  0     0  0
  2  4  2  0     0  0
  2  5  1  0     0  0
  2 12  1  0     0  0
  6 26  2  0     0  0
  7 27  1  0     0  0
  7 28  1  0     0  0
  8 13  1  0     0  0
  8 14  1  0     0  0
  8 29  1  0     0  0
  9 11  1  0     0  0
  9 13  2  0     0  0
 10 15  1  0     0  0
 10 26  1  0     0  0
 11 14  2  0     0  0
 12 16  1  0     0  0
 12 18  2  0     0  0
 13 30  1  0     0  0
 14 27  1  0     0  0
 15 19  2  0     0  0
 15 20  1  0     0  0
 16 21  2  0     0  0
 16 26  1  0     0  0
 17 22  2  0     0  0
 17 23  1  0     0  0
 17 29  1  0     0  0
 18 24  1  0     0  0
 19 22  1  0     0  0
 20 23  2  0     0  0
 21 25  1  0     0  0
 24 25  2  0     0  0
 30 31  1  0     0  0
 31 32  1  0     0  0
 32 33  1  0     0  0
M  END
> <standard_type>
pIC50

> <# Confs.>
25

> <canonical_smiles>
CCCCC1=NC(Cl)=C(COC)N1CC2=CC=C(NC(C3=CC=CC=C3S(=O)(O)=O)=O)C=C2

> <standard_relation>
=

> <Publication_ID>
nan

> <predicted_activity_value>
6.4089353929735005

> <actual_activity_value>
7.920818753952375

> <Compound>
2

> <standard_units>
nM

> hash
16370352787251155381

$$$$
2_
XXILIB    08252103443D 0   0.00000     0.00000

 33 35  0     1  0            999 V2000
    5.0286   -1.4584    0.0304 Cl  0  0  0  0  0  1           0  0  0
   -4.8592    2.4854    6.9797 S   0  0  1  0  0  6           0  0  0
   -3.7633    2.8802    6.1172 O   0  0  0  0  0  2           0  0  0
   -5.4083    3.3926    7.9691 O   0  0  0  0  0  2           0  0  0
   -6.0917    1.9676    6.0461 O   0  0  0  0  0  2           0  0  0
   -4.3021    0.0129    4.9620 O   0  0  0  0  0  2           0  0  0
    1.5677   -2.8828    1.3538 O   0  0  0  0  0  2           0  0  0
    1.4529    0.0000   -0.0000 N   0  0  0  0  0  3           0  0  0
    3.5353    0.7627    0.0092 N   0  0  0  0  0  3           0  0  0
   -2.0187    0.0296    5.3527 N   0  0  0  0  0  3           0  0  0
    3.5493   -0.6087    0.0087 C   0  0  0  0  0  4           0  0  0
   -4.3165    1.0480    7.8420 C   0  0  0  0  0  4           0  0  0
    2.2669    1.1145    0.0000 C   0  0  0  0  0  4           0  0  0
    2.2633   -1.1243   -0.0084 C   0  0  0  0  0  4           0  0  0
   -1.5586    0.0226    4.0221 C   0  0  0  0  0  4           0  0  0
   -3.5985    0.0304    7.1951 C   0  0  0  0  0  4           0  0  0
   -0.5407    0.0000    1.3974 C   0  0  0  0  0  4           0  0  0
   -4.5637    0.9709    9.2161 C   0  0  0  0  0  4           0  0  0
   -2.4307    0.0093    2.9287 C   0  0  0  0  0  4           0  0  0
   -0.1782    0.0302    3.7996 C   0  0  0  0  0  4           0  0  0
   -3.1309   -1.0603    7.9427 C   0  0  0  0  0  4           0  0  0
   -1.9229   -0.0000    1.6265 C   0  0  0  0  0  4           0  0  0
    0.3265    0.0226    2.4967 C   0  0  0  0  0  4           0  0  0
   -4.0926   -0.1190    9.9481 C   0  0  0  0  0  4           0  0  0
   -3.3761   -1.1310    9.3141 C   0  0  0  0  0  4           0  0  0
   -3.3457    0.0244    5.7341 C   0  0  0  0  0  4           0  0  0
    1.7112   -2.4980   -0.0074 C   0  0  0  0  0  4           0  0  0
    1.0401   -4.1979    1.4733 C   0  0  0  0  0  4           0  0  0
    0.0000    0.0000    0.0000 C   0  0  0  0  0  4           0  0  0
    1.7843    2.5209   -0.0048 C   0  0  0  0  0  4           0  0  0
    2.5356    3.3971    0.9929 C   0  0  0  0  0  4           0  0  0
    2.4222    2.9363    2.4458 C   0  0  0  0  0  4           0  0  0
    3.1932    3.8534    3.3814 C   0  0  0  0  0  4           0  0  0
  1 11  1  0     0  0
  2  3  2  0     0  0
  2  4  2  0     0  0
  2  5  1  0     0  0
  2 12  1  0     0  0
  6 26  2  0     0  0
  7 27  1  0     0  0
  7 28  1  0     0  0
  8 13  1  0     0  0
  8 14  1  0     0  0
  8 29  1  0     0  0
  9 11  1  0     0  0
  9 13  2  0     0  0
 10 15  1  0     0  0
 10 26  1  0     0  0
 11 14  2  0     0  0
 12 16  1  0     0  0
 12 18  2  0     0  0
 13 30  1  0     0  0
 14 27  1  0     0  0
 15 19  2  0     0  0
 15 20  1  0     0  0
 16 21  2  0     0  0
 16 26  1  0     0  0
 17 22  2  0     0  0
 17 23  1  0     0  0
 17 29  1  0     0  0
 18 24  1  0     0  0
 19 22  1  0     0  0
 20 23  2  0     0  0
 21 25  1  0     0  0
 24 25  2  0     0  0
 30 31  1  0     0  0
 31 32  1  0     0  0
 32 33  1  0     0  0
M  END
> <standard_type>
pIC50

> <# Confs.>
25

> <canonical_smiles>
CCCCC1=NC(Cl)=C(COC)N1CC2=CC=C(NC(C3=CC=CC=C3S(=O)(O)=O)=O)C=C2

> <standard_relation>
=

> <Publication_ID>
nan

> <predicted_activity_value>
6.4089353929735005

> <actual_activity_value>
7.920818753952375

> <Compound>
2

> <standard_units>
nM

> hash
16370352787251155381

$$$$
2_
XXILIB    08252103443D 0   0.00000     0.00000

 33 35  0     1  0            999 V2000
    5.0286    1.4584   -0.0304 Cl  0  0  0  0  0  1           0  0  0
   -3.2935   -3.1808    7.5855 S   0  0  1  0  0  6           0  0  0
   -3.5896   -2.9574    6.1844 O   0  0  0  0  0  2           0  0  0
   -4.1940   -3.9319    8.4390 O   0  0  0  0  0  2           0  0  0
   -1.8181   -3.8657    7.6997 O   0  0  0  0  0  2           0  0  0
   -0.7739   -1.5800    6.3273 O   0  0  0  0  0  2           0  0  0
    1.5677    2.8828   -1.3538 O   0  0  0  0  0  2           0  0  0
    1.4529   -0.0000    0.0000 N   0  0  0  0  0  3           0  0  0
    3.5353   -0.7627   -0.0092 N   0  0  0  0  0  3           0  0  0
   -2.1163    0.0137    5.3150 N   0  0  0  0  0  3           0  0  0
    3.5493    0.6087   -0.0087 C   0  0  0  0  0  4           0  0  0
   -3.1042   -1.5865    8.3112 C   0  0  0  0  0  4           0  0  0
    2.2669   -1.1145    0.0000 C   0  0  0  0  0  4           0  0  0
    2.2633    1.1243    0.0084 C   0  0  0  0  0  4           0  0  0
   -1.5702   -0.0175    4.0176 C   0  0  0  0  0  4           0  0  0
   -2.4095   -0.5585    7.6552 C   0  0  0  0  0  4           0  0  0
   -0.5407    0.0000    1.3974 C   0  0  0  0  0  4           0  0  0
   -3.7229   -1.3443    9.5414 C   0  0  0  0  0  4           0  0  0
   -0.5104   -0.8622    3.6718 C   0  0  0  0  0  4           0  0  0
   -2.1166    0.8307    3.0495 C   0  0  0  0  0  4           0  0  0
   -2.3464    0.7119    8.2462 C   0  0  0  0  0  4           0  0  0
   -0.0023   -0.8530    2.3697 C   0  0  0  0  0  4           0  0  0
   -1.6076    0.8365    1.7483 C   0  0  0  0  0  4           0  0  0
   -3.6532   -0.0762   10.1182 C   0  0  0  0  0  4           0  0  0
   -2.9689    0.9502    9.4717 C   0  0  0  0  0  4           0  0  0
   -1.6886   -0.7604    6.3753 C   0  0  0  0  0  4           0  0  0
    1.7112    2.4980    0.0074 C   0  0  0  0  0  4           0  0  0
    1.0401    4.1979   -1.4733 C   0  0  0  0  0  4           0  0  0
    0.0000    0.0000    0.0000 C   0  0  0  0  0  4           0  0  0
    1.7843   -2.5209    0.0048 C   0  0  0  0  0  4           0  0  0
    2.5356   -3.3971   -0.9929 C   0  0  0  0  0  4           0  0  0
    2.4222   -2.9363   -2.4458 C   0  0  0  0  0  4           0  0  0
    3.1932   -3.8534   -3.3814 C   0  0  0  0  0  4           0  0  0
  1 11  1  0     0  0
  2  3  2  0     0  0
  2  4  2  0     0  0
  2  5  1  0     0  0
  2 12  1  0     0  0
  6 26  2  0     0  0
  7 27  1  0     0  0
  7 28  1  0     0  0
  8 13  1  0     0  0
  8 14  1  0     0  0
  8 29  1  0     0  0
  9 11  1  0     0  0
  9 13  2  0     0  0
 10 15  1  0     0  0
 10 26  1  0     0  0
 11 14  2  0     0  0
 12 16  1  0     0  0
 12 18  2  0     0  0
 13 30  1  0     0  0
 14 27  1  0     0  0
 15 19  2  0     0  0
 15 20  1  0     0  0
 16 21  2  0     0  0
 16 26  1  0     0  0
 17 22  2  0     0  0
 17 23  1  0     0  0
 17 29  1  0     0  0
 18 24  1  0     0  0
 19 22  1  0     0  0
 20 23  2  0     0  0
 21 25  1  0     0  0
 24 25  2  0     0  0
 30 31  1  0     0  0
 31 32  1  0     0  0
 32 33  1  0     0  0
M  END
> <standard_type>
pIC50

> <# Confs.>
25

> <canonical_smiles>
CCCCC1=NC(Cl)=C(COC)N1CC2=CC=C(NC(C3=CC=CC=C3S(=O)(O)=O)=O)C=C2

> <standard_relation>
=

> <Publication_ID>
nan

> <predicted_activity_value>
6.4089353929735005

> <actual_activity_value>
7.920818753952375

> <Compound>
2

> <standard_units>
nM

> hash
16370352787251155381

$$$$
2_
XXILIB    08252103443D 0   0.00000     0.00000

 33 35  0     1  0            999 V2000
    5.0286    1.4584   -0.0304 Cl  0  0  0  0  0  1           0  0  0
   -3.2935   -3.1808    7.5855 S   0  0  1  0  0  6           0  0  0
   -3.5896   -2.9574    6.1844 O   0  0  0  0  0  2           0  0  0
   -4.1940   -3.9319    8.4390 O   0  0  0  0  0  2           0  0  0
   -1.8181   -3.8657    7.6997 O   0  0  0  0  0  2           0  0  0
   -0.7739   -1.5800    6.3273 O   0  0  0  0  0  2           0  0  0
    1.5677    2.8828   -1.3538 O   0  0  0  0  0  2           0  0  0
    1.4529   -0.0000    0.0000 N   0  0  0  0  0  3           0  0  0
    3.5353   -0.7627   -0.0092 N   0  0  0  0  0  3           0  0  0
   -2.1163    0.0137    5.3150 N   0  0  0  0  0  3           0  0  0
    3.5493    0.6087   -0.0087 C   0  0  0  0  0  4           0  0  0
   -3.1042   -1.5865    8.3112 C   0  0  0  0  0  4           0  0  0
    2.2669   -1.1145    0.0000 C   0  0  0  0  0  4           0  0  0
    2.2633    1.1243    0.0084 C   0  0  0  0  0  4           0  0  0
   -1.5702   -0.0175    4.0176 C   0  0  0  0  0  4           0  0  0
   -2.4095   -0.5585    7.6552 C   0  0  0  0  0  4           0  0  0
   -0.5407    0.0000    1.3974 C   0  0  0  0  0  4           0  0  0
   -3.7229   -1.3443    9.5414 C   0  0  0  0  0  4           0  0  0
   -0.5104   -0.8622    3.6718 C   0  0  0  0  0  4           0  0  0
   -2.1166    0.8307    3.0495 C   0  0  0  0  0  4           0  0  0
   -2.3464    0.7119    8.2462 C   0  0  0  0  0  4           0  0  0
   -0.0023   -0.8530    2.3697 C   0  0  0  0  0  4           0  0  0
   -1.6076    0.8365    1.7483 C   0  0  0  0  0  4           0  0  0
   -3.6532   -0.0762   10.1182 C   0  0  0  0  0  4           0  0  0
   -2.9689    0.9502    9.4717 C   0  0  0  0  0  4           0  0  0
   -1.6886   -0.7604    6.3753 C   0  0  0  0  0  4           0  0  0
    1.7112    2.4980    0.0074 C   0  0  0  0  0  4           0  0  0
    1.0401    4.1979   -1.4733 C   0  0  0  0  0  4           0  0  0
    0.0000    0.0000    0.0000 C   0  0  0  0  0  4           0  0  0
    1.7843   -2.5209    0.0048 C   0  0  0  0  0  4           0  0  0
    2.5356   -3.3971   -0.9929 C   0  0  0  0  0  4           0  0  0
    2.0739   -4.8538   -1.0241 C   0  0  0  0  0  4           0  0  0
    2.8640   -5.6655   -2.0379 C   0  0  0  0  0  4           0  0  0
  1 11  1  0     0  0
  2  3  2  0     0  0
  2  4  2  0     0  0
  2  5  1  0     0  0
  2 12  1  0     0  0
  6 26  2  0     0  0
  7 27  1  0     0  0
  7 28  1  0     0  0
  8 13  1  0     0  0
  8 14  1  0     0  0
  8 29  1  0     0  0
  9 11  1  0     0  0
  9 13  2  0     0  0
 10 15  1  0     0  0
 10 26  1  0     0  0
 11 14  2  0     0  0
 12 16  1  0     0  0
 12 18  2  0     0  0
 13 30  1  0     0  0
 14 27  1  0     0  0
 15 19  2  0     0  0
 15 20  1  0     0  0
 16 21  2  0     0  0
 16 26  1  0     0  0
 17 22  2  0     0  0
 17 23  1  0     0  0
 17 29  1  0     0  0
 18 24  1  0     0  0
 19 22  1  0     0  0
 20 23  2  0     0  0
 21 25  1  0     0  0
 24 25  2  0     0  0
 30 31  1  0     0  0
 31 32  1  0     0  0
 32 33  1  0     0  0
M  END
> <standard_type>
pIC50

> <# Confs.>
25

> <canonical_smiles>
CCCCC1=NC(Cl)=C(COC)N1CC2=CC=C(NC(C3=CC=CC=C3S(=O)(O)=O)=O)C=C2

> <standard_relation>
=

> <Publication_ID>
nan

> <predicted_activity_value>
6.4089353929735005

> <actual_activity_value>
7.920818753952375

> <Compound>
2

> <standard_units>
nM

> hash
16370352787251155381

$$$$
2_
XXILIB    08252103443D 0   0.00000     0.00000

 33 35  0     1  0            999 V2000
    5.0286    1.4584   -0.0304 Cl  0  0  0  0  0  1           0  0  0
   -3.2935   -3.1808    7.5855 S   0  0  1  0  0  6           0  0  0
   -3.5896   -2.9574    6.1844 O   0  0  0  0  0  2           0  0  0
   -4.1940   -3.9319    8.4390 O   0  0  0  0  0  2           0  0  0
   -1.8181   -3.8657    7.6997 O   0  0  0  0  0  2           0  0  0
   -0.7739   -1.5800    6.3273 O   0  0  0  0  0  2           0  0  0
    1.5677    2.8828   -1.3538 O   0  0  0  0  0  2           0  0  0
    1.4529   -0.0000    0.0000 N   0  0  0  0  0  3           0  0  0
    3.5353   -0.7627   -0.0092 N   0  0  0  0  0  3           0  0  0
   -2.1163    0.0137    5.3150 N   0  0  0  0  0  3           0  0  0
    3.5493    0.6087   -0.0087 C   0  0  0  0  0  4           0  0  0
   -3.1042   -1.5865    8.3112 C   0  0  0  0  0  4           0  0  0
    2.2669   -1.1145    0.0000 C   0  0  0  0  0  4           0  0  0
    2.2633    1.1243    0.0084 C   0  0  0  0  0  4           0  0  0
   -1.5702   -0.0175    4.0176 C   0  0  0  0  0  4           0  0  0
   -2.4095   -0.5585    7.6552 C   0  0  0  0  0  4           0  0  0
   -0.5407    0.0000    1.3974 C   0  0  0  0  0  4           0  0  0
   -3.7229   -1.3443    9.5414 C   0  0  0  0  0  4           0  0  0
   -0.5104   -0.8622    3.6718 C   0  0  0  0  0  4           0  0  0
   -2.1166    0.8307    3.0495 C   0  0  0  0  0  4           0  0  0
   -2.3464    0.7119    8.2462 C   0  0  0  0  0  4           0  0  0
   -0.0023   -0.8530    2.3697 C   0  0  0  0  0  4           0  0  0
   -1.6076    0.8365    1.7483 C   0  0  0  0  0  4           0  0  0
   -3.6532   -0.0762   10.1182 C   0  0  0  0  0  4           0  0  0
   -2.9689    0.9502    9.4717 C   0  0  0  0  0  4           0  0  0
   -1.6886   -0.7604    6.3753 C   0  0  0  0  0  4           0  0  0
    1.7112    2.4980    0.0074 C   0  0  0  0  0  4           0  0  0
    1.0401    4.1979   -1.4733 C   0  0  0  0  0  4           0  0  0
    0.0000    0.0000    0.0000 C   0  0  0  0  0  4           0  0  0
    1.7843   -2.5209    0.0048 C   0  0  0  0  0  4           0  0  0
    2.5420   -3.3924    1.0018 C   0  0  0  0  0  4           0  0  0
    2.0805   -4.8490    1.0428 C   0  0  0  0  0  4           0  0  0
    2.8771   -5.6560    2.0553 C   0  0  0  0  0  4           0  0  0
  1 11  1  0     0  0
  2  3  2  0     0  0
  2  4  2  0     0  0
  2  5  1  0     0  0
  2 12  1  0     0  0
  6 26  2  0     0  0
  7 27  1  0     0  0
  7 28  1  0     0  0
  8 13  1  0     0  0
  8 14  1  0     0  0
  8 29  1  0     0  0
  9 11  1  0     0  0
  9 13  2  0     0  0
 10 15  1  0     0  0
 10 26  1  0     0  0
 11 14  2  0     0  0
 12 16  1  0     0  0
 12 18  2  0     0  0
 13 30  1  0     0  0
 14 27  1  0     0  0
 15 19  2  0     0  0
 15 20  1  0     0  0
 16 21  2  0     0  0
 16 26  1  0     0  0
 17 22  2  0     0  0
 17 23  1  0     0  0
 17 29  1  0     0  0
 18 24  1  0     0  0
 19 22  1  0     0  0
 20 23  2  0     0  0
 21 25  1  0     0  0
 24 25  2  0     0  0
 30 31  1  0     0  0
 31 32  1  0     0  0
 32 33  1  0     0  0
M  END
> <standard_type>
pIC50

> <# Confs.>
25

> <canonical_smiles>
CCCCC1=NC(Cl)=C(COC)N1CC2=CC=C(NC(C3=CC=CC=C3S(=O)(O)=O)=O)C=C2

> <standard_relation>
=

> <Publication_ID>
nan

> <predicted_activity_value>
6.4089353929735005

> <actual_activity_value>
7.920818753952375

> <Compound>
2

> <standard_units>
nM

> hash
16370352787251155381

$$$$
2_
XXILIB    08252103443D 0   0.00000     0.00000

 33 35  0     1  0            999 V2000
    5.0286   -1.4584    0.0304 Cl  0  0  0  0  0  1           0  0  0
   -5.9483    0.3341    6.5582 S   0  0  1  0  0  6           0  0  0
   -5.3070    1.1159    5.5198 O   0  0  0  0  0  2           0  0  0
   -7.0534    0.8659    7.3325 O   0  0  0  0  0  2           0  0  0
   -6.4334   -1.0831    5.9138 O   0  0  0  0  0  2           0  0  0
   -3.7038   -1.5617    5.1935 O   0  0  0  0  0  2           0  0  0
    1.5480   -2.8767   -1.3681 O   0  0  0  0  0  2           0  0  0
    1.4529    0.0000    0.0000 N   0  0  0  0  0  3           0  0  0
    3.5353    0.7627    0.0092 N   0  0  0  0  0  3           0  0  0
   -2.0516    0.0556    5.3400 N   0  0  0  0  0  3           0  0  0
    3.5493   -0.6087    0.0087 C   0  0  0  0  0  4           0  0  0
   -4.6810   -0.1044    7.7010 C   0  0  0  0  0  4           0  0  0
    2.2669    1.1145    0.0000 C   0  0  0  0  0  4           0  0  0
    2.2633   -1.1243   -0.0084 C   0  0  0  0  0  4           0  0  0
   -1.5730    0.0145    4.0166 C   0  0  0  0  0  4           0  0  0
   -3.4111   -0.5155    7.2676 C   0  0  0  0  0  4           0  0  0
   -0.5407    0.0000    1.3974 C   0  0  0  0  0  4           0  0  0
   -4.9499    0.0287    9.0666 C   0  0  0  0  0  4           0  0  0
   -2.1063   -0.8490    3.0543 C   0  0  0  0  0  4           0  0  0
   -0.5273    0.8735    3.6645 C   0  0  0  0  0  4           0  0  0
   -2.4170   -0.7876    8.2189 C   0  0  0  0  0  4           0  0  0
   -1.5934   -0.8530    1.7540 C   0  0  0  0  0  4           0  0  0
   -0.0177    0.8684    2.3636 C   0  0  0  0  0  4           0  0  0
   -3.9522   -0.2445   10.0025 C   0  0  0  0  0  4           0  0  0
   -2.6883   -0.6493    9.5803 C   0  0  0  0  0  4           0  0  0
   -3.0747   -0.7259    5.8389 C   0  0  0  0  0  4           0  0  0
    1.7112   -2.4980   -0.0074 C   0  0  0  0  0  4           0  0  0
    1.0187   -4.1914   -1.4857 C   0  0  0  0  0  4           0  0  0
    0.0000    0.0000    0.0000 C   0  0  0  0  0  4           0  0  0
    1.7843    2.5209   -0.0048 C   0  0  0  0  0  4           0  0  0
    1.6000    3.0677   -1.4172 C   0  0  0  0  0  4           0  0  0
    1.1043    4.5125   -1.4732 C   0  0  0  0  0  4           0  0  0
   -0.2449    4.6640   -0.7894 C   0  0  0  0  0  4           0  0  0
  1 11  1  0     0  0
  2  3  2  0     0  0
  2  4  2  0     0  0
  2  5  1  0     0  0
  2 12  1  0     0  0
  6 26  2  0     0  0
  7 27  1  0     0  0
  7 28  1  0     0  0
  8 13  1  0     0  0
  8 14  1  0     0  0
  8 29  1  0     0  0
  9 11  1  0     0  0
  9 13  2  0     0  0
 10 15  1  0     0  0
 10 26  1  0     0  0
 11 14  2  0     0  0
 12 16  1  0     0  0
 12 18  2  0     0  0
 13 30  1  0     0  0
 14 27  1  0     0  0
 15 19  2  0     0  0
 15 20  1  0     0  0
 16 21  2  0     0  0
 16 26  1  0     0  0
 17 22  2  0     0  0
 17 23  1  0     0  0
 17 29  1  0     0  0
 18 24  1  0     0  0
 19 22  1  0     0  0
 20 23  2  0     0  0
 21 25  1  0     0  0
 24 25  2  0     0  0
 30 31  1  0     0  0
 31 32  1  0     0  0
 32 33  1  0     0  0
M  END
> <standard_type>
pIC50

> <# Confs.>
25

> <canonical_smiles>
CCCCC1=NC(Cl)=C(COC)N1CC2=CC=C(NC(C3=CC=CC=C3S(=O)(O)=O)=O)C=C2

> <standard_relation>
=

> <Publication_ID>
nan

> <predicted_activity_value>
6.4089353929735005

> <actual_activity_value>
7.920818753952375

> <Compound>
2

> <standard_units>
nM

> hash
16370352787251155381

$$$$
25_
XXILIB    08252103443D 0   0.00000     0.00000

 30 31  0     1  0            999 V2000
   -3.5514    0.0514   -1.4977 Cl  0  0  0  0  0  1           0  0  0
    0.1758    2.4044   -2.3153 O   0  0  0  0  0  2           0  0  0
    5.3540  -10.0506    0.0486 O   0  0  0  0  0  2           0  0  0
    5.2152   -5.3760   -1.5138 O   0  0  0  0  0  2           0  0  0
   -0.3457    1.4738   -4.3568 O   0  0  0  0  0  2           0  0  0
    7.0128  -10.0450   -1.5004 O   0  0  0  0  0  2           0  0  0
    0.0000   -0.0000    0.0000 N   0  0  0  0  0  3           0  0  0
   -2.0876    0.0134    0.7607 N   0  0  0  0  0  3           0  0  0
    3.4974   -5.3411    0.0561 N   0  0  0  0  0  3           0  0  0
   -2.0963    0.0280   -0.6092 C   0  0  0  0  0  4           0  0  0
   -0.8178    0.0000    1.1140 C   0  0  0  0  0  4           0  0  0
   -0.8109    0.0232   -1.1184 C   0  0  0  0  0  4           0  0  0
    3.0219   -4.0161    0.0152 C   0  0  0  0  0  4           0  0  0
    1.9916   -1.3968    0.0000 C   0  0  0  0  0  4           0  0  0
    1.9635   -3.6690    0.8604 C   0  0  0  0  0  4           0  0  0
    3.5701   -3.0490   -0.8334 C   0  0  0  0  0  4           0  0  0
    1.4534   -2.3688    0.8531 C   0  0  0  0  0  4           0  0  0
    3.0595   -1.7478   -0.8361 C   0  0  0  0  0  4           0  0  0
   -0.1257    1.4428   -3.0097 C   0  0  0  0  0  4           0  0  0
    6.0262   -9.4524   -0.7826 C   0  0  0  0  0  4           0  0  0
    4.5183   -5.9320   -0.6670 C   0  0  0  0  0  4           0  0  0
   -0.2018    2.7578   -4.9727 C   0  0  0  0  0  4           0  0  0
    1.4502   -0.0000   -0.0000 C   0  0  0  0  0  4           0  0  0
   -0.3354   -0.0151    2.5200 C   0  0  0  0  0  4           0  0  0
   -0.3220    0.0302   -2.5203 C   0  0  0  0  0  4           0  0  0
    5.8358   -8.0018   -1.1299 C   0  0  0  0  0  4           0  0  0
    4.7094   -7.3878   -0.3185 C   0  0  0  0  0  4           0  0  0
   -1.0807    0.9837    3.4002 C   0  0  0  0  0  4           0  0  0
   -0.5929    0.9764    4.8468 C   0  0  0  0  0  4           0  0  0
   -1.3342    1.9714    5.7275 C   0  0  0  0  0  4           0  0  0
  1 10  1  0     0  0
  2 19  2  0     0  0
  3 20  2  0     0  0
  4 21  2  0     0  0
  5 19  1  0     0  0
  5 22  1  0     0  0
  6 20  1  0     0  0
  7 11  1  0     0  0
  7 12  1  0     0  0
  7 23  1  0     0  0
  8 10  1  0     0  0
  8 11  2  0     0  0
  9 13  1  0     0  0
  9 21  1  0     0  0
 10 12  2  0     0  0
 11 24  1  0     0  0
 12 25  1  0     0  0
 13 15  2  0     0  0
 13 16  1  0     0  0
 14 17  2  0     0  0
 14 18  1  0     0  0
 14 23  1  0     0  0
 15 17  1  0     0  0
 16 18  2  0     0  0
 19 25  1  0     0  0
 20 26  1  0     0  0
 21 27  1  0     0  0
 24 28  1  0     0  0
 26 27  1  0     0  0
 28 29  1  0     0  0
 29 30  1  0     0  0
M  END
> <standard_type>
pIC50

> <# Confs.>
25

> <canonical_smiles>
ClC(N=C1CCCC)=C(CC(OC)=O)N1CC2=CC=C(NC(CCC(O)=O)=O)C=C2

> <standard_relation>
=

> <Publication_ID>
nan

> <predicted_activity_value>
5.045757490560675

> <actual_activity_value>
4.494850021680094

> <Compound>
25

> <standard_units>
nM

> hash
17748807188493933904

$$$$
25_
XXILIB    08252103443D 0   0.00000     0.00000

 30 31  0     1  0            999 V2000
   -3.5514    0.0514   -1.4977 Cl  0  0  0  0  0  1           0  0  0
    0.1758    2.4044   -2.3153 O   0  0  0  0  0  2           0  0  0
    5.3540  -10.0506    0.0486 O   0  0  0  0  0  2           0  0  0
    5.2152   -5.3760   -1.5138 O   0  0  0  0  0  2           0  0  0
   -0.3457    1.4738   -4.3568 O   0  0  0  0  0  2           0  0  0
    7.0128  -10.0450   -1.5004 O   0  0  0  0  0  2           0  0  0
    0.0000   -0.0000    0.0000 N   0  0  0  0  0  3           0  0  0
   -2.0876    0.0134    0.7607 N   0  0  0  0  0  3           0  0  0
    3.4974   -5.3411    0.0561 N   0  0  0  0  0  3           0  0  0
   -2.0963    0.0280   -0.6092 C   0  0  0  0  0  4           0  0  0
   -0.8178    0.0000    1.1140 C   0  0  0  0  0  4           0  0  0
   -0.8109    0.0232   -1.1184 C   0  0  0  0  0  4           0  0  0
    3.0219   -4.0161    0.0152 C   0  0  0  0  0  4           0  0  0
    1.9916   -1.3968    0.0000 C   0  0  0  0  0  4           0  0  0
    1.9635   -3.6690    0.8604 C   0  0  0  0  0  4           0  0  0
    3.5701   -3.0490   -0.8334 C   0  0  0  0  0  4           0  0  0
    1.4534   -2.3688    0.8531 C   0  0  0  0  0  4           0  0  0
    3.0595   -1.7478   -0.8361 C   0  0  0  0  0  4           0  0  0
   -0.1257    1.4428   -3.0097 C   0  0  0  0  0  4           0  0  0
    6.0262   -9.4524   -0.7826 C   0  0  0  0  0  4           0  0  0
    4.5183   -5.9320   -0.6670 C   0  0  0  0  0  4           0  0  0
   -0.2018    2.7578   -4.9727 C   0  0  0  0  0  4           0  0  0
    1.4502   -0.0000   -0.0000 C   0  0  0  0  0  4           0  0  0
   -0.3354   -0.0151    2.5200 C   0  0  0  0  0  4           0  0  0
   -0.3220    0.0302   -2.5203 C   0  0  0  0  0  4           0  0  0
    5.8358   -8.0018   -1.1299 C   0  0  0  0  0  4           0  0  0
    4.7094   -7.3878   -0.3185 C   0  0  0  0  0  4           0  0  0
   -1.0807    0.9837    3.4002 C   0  0  0  0  0  4           0  0  0
   -0.9343    2.4239    2.9155 C   0  0  0  0  0  4           0  0  0
   -1.6764    3.4226    3.7913 C   0  0  0  0  0  4           0  0  0
  1 10  1  0     0  0
  2 19  2  0     0  0
  3 20  2  0     0  0
  4 21  2  0     0  0
  5 19  1  0     0  0
  5 22  1  0     0  0
  6 20  1  0     0  0
  7 11  1  0     0  0
  7 12  1  0     0  0
  7 23  1  0     0  0
  8 10  1  0     0  0
  8 11  2  0     0  0
  9 13  1  0     0  0
  9 21  1  0     0  0
 10 12  2  0     0  0
 11 24  1  0     0  0
 12 25  1  0     0  0
 13 15  2  0     0  0
 13 16  1  0     0  0
 14 17  2  0     0  0
 14 18  1  0     0  0
 14 23  1  0     0  0
 15 17  1  0     0  0
 16 18  2  0     0  0
 19 25  1  0     0  0
 20 26  1  0     0  0
 21 27  1  0     0  0
 24 28  1  0     0  0
 26 27  1  0     0  0
 28 29  1  0     0  0
 29 30  1  0     0  0
M  END
> <standard_type>
pIC50

> <# Confs.>
25

> <canonical_smiles>
ClC(N=C1CCCC)=C(CC(OC)=O)N1CC2=CC=C(NC(CCC(O)=O)=O)C=C2

> <standard_relation>
=

> <Publication_ID>
nan

> <predicted_activity_value>
5.045757490560675

> <actual_activity_value>
4.494850021680094

> <Compound>
25

> <standard_units>
nM

> hash
17748807188493933904

$$$$
25_
XXILIB    08252103443D 0   0.00000     0.00000

 30 31  0     1  0            999 V2000
   -3.5514    0.0514   -1.4977 Cl  0  0  0  0  0  1           0  0  0
    0.1758    2.4044   -2.3153 O   0  0  0  0  0  2           0  0  0
    5.3540  -10.0506    0.0486 O   0  0  0  0  0  2           0  0  0
    5.2152   -5.3760   -1.5138 O   0  0  0  0  0  2           0  0  0
   -0.3457    1.4738   -4.3568 O   0  0  0  0  0  2           0  0  0
    7.0128  -10.0450   -1.5004 O   0  0  0  0  0  2           0  0  0
    0.0000   -0.0000    0.0000 N   0  0  0  0  0  3           0  0  0
   -2.0876    0.0134    0.7607 N   0  0  0  0  0  3           0  0  0
    3.4974   -5.3411    0.0561 N   0  0  0  0  0  3           0  0  0
   -2.0963    0.0280   -0.6092 C   0  0  0  0  0  4           0  0  0
   -0.8178    0.0000    1.1140 C   0  0  0  0  0  4           0  0  0
   -0.8109    0.0232   -1.1184 C   0  0  0  0  0  4           0  0  0
    3.0219   -4.0161    0.0152 C   0  0  0  0  0  4           0  0  0
    1.9916   -1.3968    0.0000 C   0  0  0  0  0  4           0  0  0
    1.9635   -3.6690    0.8604 C   0  0  0  0  0  4           0  0  0
    3.5701   -3.0490   -0.8334 C   0  0  0  0  0  4           0  0  0
    1.4534   -2.3688    0.8531 C   0  0  0  0  0  4           0  0  0
    3.0595   -1.7478   -0.8361 C   0  0  0  0  0  4           0  0  0
   -0.1257    1.4428   -3.0097 C   0  0  0  0  0  4           0  0  0
    6.0262   -9.4524   -0.7826 C   0  0  0  0  0  4           0  0  0
    4.5183   -5.9320   -0.6670 C   0  0  0  0  0  4           0  0  0
   -0.2018    2.7578   -4.9727 C   0  0  0  0  0  4           0  0  0
    1.4502   -0.0000   -0.0000 C   0  0  0  0  0  4           0  0  0
   -0.3354   -0.0151    2.5200 C   0  0  0  0  0  4           0  0  0
   -0.3220    0.0302   -2.5203 C   0  0  0  0  0  4           0  0  0
    5.8358   -8.0018   -1.1299 C   0  0  0  0  0  4           0  0  0
    4.7094   -7.3878   -0.3185 C   0  0  0  0  0  4           0  0  0
   -1.1006   -1.0116    3.3856 C   0  0  0  0  0  4           0  0  0
   -0.6130   -1.0352    4.8321 C   0  0  0  0  0  4           0  0  0
   -1.3740   -2.0280    5.6983 C   0  0  0  0  0  4           0  0  0
  1 10  1  0     0  0
  2 19  2  0     0  0
  3 20  2  0     0  0
  4 21  2  0     0  0
  5 19  1  0     0  0
  5 22  1  0     0  0
  6 20  1  0     0  0
  7 11  1  0     0  0
  7 12  1  0     0  0
  7 23  1  0     0  0
  8 10  1  0     0  0
  8 11  2  0     0  0
  9 13  1  0     0  0
  9 21  1  0     0  0
 10 12  2  0     0  0
 11 24  1  0     0  0
 12 25  1  0     0  0
 13 15  2  0     0  0
 13 16  1  0     0  0
 14 17  2  0     0  0
 14 18  1  0     0  0
 14 23  1  0     0  0
 15 17  1  0     0  0
 16 18  2  0     0  0
 19 25  1  0     0  0
 20 26  1  0     0  0
 21 27  1  0     0  0
 24 28  1  0     0  0
 26 27  1  0     0  0
 28 29  1  0     0  0
 29 30  1  0     0  0
M  END
> <standard_type>
pIC50

> <# Confs.>
25

> <canonical_smiles>
ClC(N=C1CCCC)=C(CC(OC)=O)N1CC2=CC=C(NC(CCC(O)=O)=O)C=C2

> <standard_relation>
=

> <Publication_ID>
nan

> <predicted_activity_value>
5.045757490560675

> <actual_activity_value>
4.494850021680094

> <Compound>
25

> <standard_units>
nM

> hash
17748807188493933904

$$$$
25_
XXILIB    08252103443D 0   0.00000     0.00000

 30 31  0     1  0            999 V2000
   -3.5514    0.0514   -1.4977 Cl  0  0  0  0  0  1           0  0  0
    0.1058   -2.3614   -2.3634 O   0  0  0  0  0  2           0  0  0
    5.3920   10.0359    0.0078 O   0  0  0  0  0  2           0  0  0
    2.3420    6.4896    1.5678 O   0  0  0  0  0  2           0  0  0
   -0.3764   -1.3729   -4.3873 O   0  0  0  0  0  2           0  0  0
    4.1625   11.1497    1.5566 O   0  0  0  0  0  2           0  0  0
    0.0000   -0.0000    0.0000 N   0  0  0  0  0  3           0  0  0
   -2.0876    0.0134    0.7607 N   0  0  0  0  0  3           0  0  0
    3.5696    5.3131   -0.0214 N   0  0  0  0  0  3           0  0  0
   -2.0963    0.0280   -0.6092 C   0  0  0  0  0  4           0  0  0
   -0.8178    0.0000    1.1140 C   0  0  0  0  0  4           0  0  0
   -0.8109    0.0232   -1.1184 C   0  0  0  0  0  4           0  0  0
    3.0230    4.0157    0.0141 C   0  0  0  0  0  4           0  0  0
    1.9916    1.3968    0.0000 C   0  0  0  0  0  4           0  0  0
    3.5558    3.0519   -0.8473 C   0  0  0  0  0  4           0  0  0
    1.9774    3.6663    0.8747 C   0  0  0  0  0  4           0  0  0
    3.0443    1.7522   -0.8531 C   0  0  0  0  0  4           0  0  0
    1.4697    2.3639    0.8689 C   0  0  0  0  0  4           0  0  0
   -0.1671   -1.3775   -3.0381 C   0  0  0  0  0  4           0  0  0
    4.5032   10.0426    0.8508 C   0  0  0  0  0  4           0  0  0
    3.2278    6.4321    0.7170 C   0  0  0  0  0  4           0  0  0
   -0.2576   -2.6458   -5.0310 C   0  0  0  0  0  4           0  0  0
    1.4502    0.0000   -0.0000 C   0  0  0  0  0  4           0  0  0
   -0.3354   -0.0151    2.5200 C   0  0  0  0  0  4           0  0  0
   -0.3220    0.0302   -2.5203 C   0  0  0  0  0  4           0  0  0
    3.6657    8.8428    1.1974 C   0  0  0  0  0  4           0  0  0
    4.0683    7.6363    0.3691 C   0  0  0  0  0  4           0  0  0
   -1.1006   -1.0116    3.3856 C   0  0  0  0  0  4           0  0  0
   -0.6130   -1.0352    4.8321 C   0  0  0  0  0  4           0  0  0
   -1.3740   -2.0280    5.6983 C   0  0  0  0  0  4           0  0  0
  1 10  1  0     0  0
  2 19  2  0     0  0
  3 20  2  0     0  0
  4 21  2  0     0  0
  5 19  1  0     0  0
  5 22  1  0     0  0
  6 20  1  0     0  0
  7 11  1  0     0  0
  7 12  1  0     0  0
  7 23  1  0     0  0
  8 10  1  0     0  0
  8 11  2  0     0  0
  9 13  1  0     0  0
  9 21  1  0     0  0
 10 12  2  0     0  0
 11 24  1  0     0  0
 12 25  1  0     0  0
 13 15  2  0     0  0
 13 16  1  0     0  0
 14 17  2  0     0  0
 14 18  1  0     0  0
 14 23  1  0     0  0
 15 17  1  0     0  0
 16 18  2  0     0  0
 19 25  1  0     0  0
 20 26  1  0     0  0
 21 27  1  0     0  0
 24 28  1  0     0  0
 26 27  1  0     0  0
 28 29  1  0     0  0
 29 30  1  0     0  0
M  END
> <standard_type>
pIC50

> <# Confs.>
25

> <canonical_smiles>
ClC(N=C1CCCC)=C(CC(OC)=O)N1CC2=CC=C(NC(CCC(O)=O)=O)C=C2

> <standard_relation>
=

> <Publication_ID>
nan

> <predicted_activity_value>
5.045757490560675

> <actual_activity_value>
4.494850021680094

> <Compound>
25

> <standard_units>
nM

> hash
17748807188493933904

$$$$
25_
XXILIB    08252103443D 0   0.00000     0.00000

 30 31  0     1  0            999 V2000
   -3.5514    0.0514   -1.4977 Cl  0  0  0  0  0  1           0  0  0
    0.1058   -2.3614   -2.3634 O   0  0  0  0  0  2           0  0  0
    5.3920   10.0359    0.0078 O   0  0  0  0  0  2           0  0  0
    2.3420    6.4896    1.5678 O   0  0  0  0  0  2           0  0  0
   -0.3764   -1.3729   -4.3873 O   0  0  0  0  0  2           0  0  0
    4.1625   11.1497    1.5566 O   0  0  0  0  0  2           0  0  0
    0.0000   -0.0000    0.0000 N   0  0  0  0  0  3           0  0  0
   -2.0876    0.0134    0.7607 N   0  0  0  0  0  3           0  0  0
    3.5696    5.3131   -0.0214 N   0  0  0  0  0  3           0  0  0
   -2.0963    0.0280   -0.6092 C   0  0  0  0  0  4           0  0  0
   -0.8178    0.0000    1.1140 C   0  0  0  0  0  4           0  0  0
   -0.8109    0.0232   -1.1184 C   0  0  0  0  0  4           0  0  0
    3.0230    4.0157    0.0141 C   0  0  0  0  0  4           0  0  0
    1.9916    1.3968    0.0000 C   0  0  0  0  0  4           0  0  0
    3.5558    3.0519   -0.8473 C   0  0  0  0  0  4           0  0  0
    1.9774    3.6663    0.8747 C   0  0  0  0  0  4           0  0  0
    3.0443    1.7522   -0.8531 C   0  0  0  0  0  4           0  0  0
    1.4697    2.3639    0.8689 C   0  0  0  0  0  4           0  0  0
   -0.1671   -1.3775   -3.0381 C   0  0  0  0  0  4           0  0  0
    4.5032   10.0426    0.8508 C   0  0  0  0  0  4           0  0  0
    3.2278    6.4321    0.7170 C   0  0  0  0  0  4           0  0  0
   -0.2576   -2.6458   -5.0310 C   0  0  0  0  0  4           0  0  0
    1.4502    0.0000   -0.0000 C   0  0  0  0  0  4           0  0  0
   -0.3354   -0.0151    2.5200 C   0  0  0  0  0  4           0  0  0
   -0.3220    0.0302   -2.5203 C   0  0  0  0  0  4           0  0  0
    3.6657    8.8428    1.1974 C   0  0  0  0  0  4           0  0  0
    4.0683    7.6363    0.3691 C   0  0  0  0  0  4           0  0  0
   -1.1006   -1.0116    3.3856 C   0  0  0  0  0  4           0  0  0
   -0.9829   -2.4471    2.8799 C   0  0  0  0  0  4           0  0  0
   -1.7449   -3.4436    3.7410 C   0  0  0  0  0  4           0  0  0
  1 10  1  0     0  0
  2 19  2  0     0  0
  3 20  2  0     0  0
  4 21  2  0     0  0
  5 19  1  0     0  0
  5 22  1  0     0  0
  6 20  1  0     0  0
  7 11  1  0     0  0
  7 12  1  0     0  0
  7 23  1  0     0  0
  8 10  1  0     0  0
  8 11  2  0     0  0
  9 13  1  0     0  0
  9 21  1  0     0  0
 10 12  2  0     0  0
 11 24  1  0     0  0
 12 25  1  0     0  0
 13 15  2  0     0  0
 13 16  1  0     0  0
 14 17  2  0     0  0
 14 18  1  0     0  0
 14 23  1  0     0  0
 15 17  1  0     0  0
 16 18  2  0     0  0
 19 25  1  0     0  0
 20 26  1  0     0  0
 21 27  1  0     0  0
 24 28  1  0     0  0
 26 27  1  0     0  0
 28 29  1  0     0  0
 29 30  1  0     0  0
M  END
> <standard_type>
pIC50

> <# Confs.>
25

> <canonical_smiles>
ClC(N=C1CCCC)=C(CC(OC)=O)N1CC2=CC=C(NC(CCC(O)=O)=O)C=C2

> <standard_relation>
=

> <Publication_ID>
nan

> <predicted_activity_value>
5.045757490560675

> <actual_activity_value>
4.494850021680094

> <Compound>
25

> <standard_units>
nM

> hash
17748807188493933904

$$$$
25_
XXILIB    08252103443D 0   0.00000     0.00000

 30 31  0     1  0            999 V2000
   -3.5514    0.0514   -1.4977 Cl  0  0  0  0  0  1           0  0  0
    0.1758    2.4044   -2.3153 O   0  0  0  0  0  2           0  0  0
    5.3920  -10.0359   -0.0078 O   0  0  0  0  0  2           0  0  0
    2.3420   -6.4896   -1.5678 O   0  0  0  0  0  2           0  0  0
   -0.3457    1.4738   -4.3568 O   0  0  0  0  0  2           0  0  0
    4.1625  -11.1497   -1.5566 O   0  0  0  0  0  2           0  0  0
    0.0000   -0.0000    0.0000 N   0  0  0  0  0  3           0  0  0
   -2.0876    0.0134    0.7607 N   0  0  0  0  0  3           0  0  0
    3.5696   -5.3131    0.0214 N   0  0  0  0  0  3           0  0  0
   -2.0963    0.0280   -0.6092 C   0  0  0  0  0  4           0  0  0
   -0.8178    0.0000    1.1140 C   0  0  0  0  0  4           0  0  0
   -0.8109    0.0232   -1.1184 C   0  0  0  0  0  4           0  0  0
    3.0230   -4.0157   -0.0141 C   0  0  0  0  0  4           0  0  0
    1.9916   -1.3968    0.0000 C   0  0  0  0  0  4           0  0  0
    3.5558   -3.0519    0.8473 C   0  0  0  0  0  4           0  0  0
    1.9774   -3.6663   -0.8747 C   0  0  0  0  0  4           0  0  0
    3.0443   -1.7522    0.8531 C   0  0  0  0  0  4           0  0  0
    1.4697   -2.3639   -0.8689 C   0  0  0  0  0  4           0  0  0
   -0.1257    1.4428   -3.0097 C   0  0  0  0  0  4           0  0  0
    4.5032  -10.0426   -0.8508 C   0  0  0  0  0  4           0  0  0
    3.2278   -6.4321   -0.7170 C   0  0  0  0  0  4           0  0  0
   -0.2018    2.7578   -4.9727 C   0  0  0  0  0  4           0  0  0
    1.4502   -0.0000    0.0000 C   0  0  0  0  0  4           0  0  0
   -0.3354   -0.0151    2.5200 C   0  0  0  0  0  4           0  0  0
   -0.3220    0.0302   -2.5203 C   0  0  0  0  0  4           0  0  0
    3.6657   -8.8428   -1.1974 C   0  0  0  0  0  4           0  0  0
    4.0683   -7.6363   -0.3691 C   0  0  0  0  0  4           0  0  0
   -0.1329    1.3898    3.0794 C   0  0  0  0  0  4           0  0  0
    0.3626    1.3859    4.5234 C   0  0  0  0  0  4           0  0  0
    0.5656    2.7855    5.0845 C   0  0  0  0  0  4           0  0  0
  1 10  1  0     0  0
  2 19  2  0     0  0
  3 20  2  0     0  0
  4 21  2  0     0  0
  5 19  1  0     0  0
  5 22  1  0     0  0
  6 20  1  0     0  0
  7 11  1  0     0  0
  7 12  1  0     0  0
  7 23  1  0     0  0
  8 10  1  0     0  0
  8 11  2  0     0  0
  9 13  1  0     0  0
  9 21  1  0     0  0
 10 12  2  0     0  0
 11 24  1  0     0  0
 12 25  1  0     0  0
 13 15  2  0     0  0
 13 16  1  0     0  0
 14 17  2  0     0  0
 14 18  1  0     0  0
 14 23  1  0     0  0
 15 17  1  0     0  0
 16 18  2  0     0  0
 19 25  1  0     0  0
 20 26  1  0     0  0
 21 27  1  0     0  0
 24 28  1  0     0  0
 26 27  1  0     0  0
 28 29  1  0     0  0
 29 30  1  0     0  0
M  END
> <standard_type>
pIC50

> <# Confs.>
25

> <canonical_smiles>
ClC(N=C1CCCC)=C(CC(OC)=O)N1CC2=CC=C(NC(CCC(O)=O)=O)C=C2

> <standard_relation>
=

> <Publication_ID>
nan

> <predicted_activity_value>
5.045757490560675

> <actual_activity_value>
4.494850021680094

> <Compound>
25

> <standard_units>
nM

> hash
17748807188493933904

$$$$
25_
XXILIB    08252103443D 0   0.00000     0.00000

 30 31  0     1  0            999 V2000
   -3.5514    0.0514   -1.4977 Cl  0  0  0  0  0  1           0  0  0
    0.1058   -2.3614   -2.3634 O   0  0  0  0  0  2           0  0  0
    5.3920   10.0359    0.0078 O   0  0  0  0  0  2           0  0  0
    2.3420    6.4896    1.5678 O   0  0  0  0  0  2           0  0  0
   -0.3764   -1.3729   -4.3873 O   0  0  0  0  0  2           0  0  0
    4.1625   11.1497    1.5566 O   0  0  0  0  0  2           0  0  0
    0.0000   -0.0000    0.0000 N   0  0  0  0  0  3           0  0  0
   -2.0876    0.0134    0.7607 N   0  0  0  0  0  3           0  0  0
    3.5696    5.3131   -0.0214 N   0  0  0  0  0  3           0  0  0
   -2.0963    0.0280   -0.6092 C   0  0  0  0  0  4           0  0  0
   -0.8178    0.0000    1.1140 C   0  0  0  0  0  4           0  0  0
   -0.8109    0.0232   -1.1184 C   0  0  0  0  0  4           0  0  0
    3.0230    4.0157    0.0141 C   0  0  0  0  0  4           0  0  0
    1.9916    1.3968    0.0000 C   0  0  0  0  0  4           0  0  0
    3.5558    3.0519   -0.8473 C   0  0  0  0  0  4           0  0  0
    1.9774    3.6663    0.8747 C   0  0  0  0  0  4           0  0  0
    3.0443    1.7522   -0.8531 C   0  0  0  0  0  4           0  0  0
    1.4697    2.3639    0.8689 C   0  0  0  0  0  4           0  0  0
   -0.1671   -1.3775   -3.0381 C   0  0  0  0  0  4           0  0  0
    4.5032   10.0426    0.8508 C   0  0  0  0  0  4           0  0  0
    3.2278    6.4321    0.7170 C   0  0  0  0  0  4           0  0  0
   -0.2576   -2.6458   -5.0310 C   0  0  0  0  0  4           0  0  0
    1.4502    0.0000   -0.0000 C   0  0  0  0  0  4           0  0  0
   -0.3354   -0.0151    2.5200 C   0  0  0  0  0  4           0  0  0
   -0.3220    0.0302   -2.5203 C   0  0  0  0  0  4           0  0  0
    3.6657    8.8428    1.1974 C   0  0  0  0  0  4           0  0  0
    4.0683    7.6363    0.3691 C   0  0  0  0  0  4           0  0  0
   -1.0807    0.9837    3.4002 C   0  0  0  0  0  4           0  0  0
   -0.5929    0.9764    4.8468 C   0  0  0  0  0  4           0  0  0
   -1.3342    1.9714    5.7275 C   0  0  0  0  0  4           0  0  0
  1 10  1  0     0  0
  2 19  2  0     0  0
  3 20  2  0     0  0
  4 21  2  0     0  0
  5 19  1  0     0  0
  5 22  1  0     0  0
  6 20  1  0     0  0
  7 11  1  0     0  0
  7 12  1  0     0  0
  7 23  1  0     0  0
  8 10  1  0     0  0
  8 11  2  0     0  0
  9 13  1  0     0  0
  9 21  1  0     0  0
 10 12  2  0     0  0
 11 24  1  0     0  0
 12 25  1  0     0  0
 13 15  2  0     0  0
 13 16  1  0     0  0
 14 17  2  0     0  0
 14 18  1  0     0  0
 14 23  1  0     0  0
 15 17  1  0     0  0
 16 18  2  0     0  0
 19 25  1  0     0  0
 20 26  1  0     0  0
 21 27  1  0     0  0
 24 28  1  0     0  0
 26 27  1  0     0  0
 28 29  1  0     0  0
 29 30  1  0     0  0
M  END
> <standard_type>
pIC50

> <# Confs.>
25

> <canonical_smiles>
ClC(N=C1CCCC)=C(CC(OC)=O)N1CC2=CC=C(NC(CCC(O)=O)=O)C=C2

> <standard_relation>
=

> <Publication_ID>
nan

> <predicted_activity_value>
5.045757490560675

> <actual_activity_value>
4.494850021680094

> <Compound>
25

> <standard_units>
nM

> hash
17748807188493933904

$$$$
25_
XXILIB    08252103443D 0   0.00000     0.00000

 30 31  0     1  0            999 V2000
   -3.5514    0.0514   -1.4977 Cl  0  0  0  0  0  1           0  0  0
    0.1758    2.4044   -2.3153 O   0  0  0  0  0  2           0  0  0
    5.3920  -10.0359   -0.0078 O   0  0  0  0  0  2           0  0  0
    2.3420   -6.4896   -1.5678 O   0  0  0  0  0  2           0  0  0
   -0.3457    1.4738   -4.3568 O   0  0  0  0  0  2           0  0  0
    4.1625  -11.1497   -1.5566 O   0  0  0  0  0  2           0  0  0
    0.0000   -0.0000    0.0000 N   0  0  0  0  0  3           0  0  0
   -2.0876    0.0134    0.7607 N   0  0  0  0  0  3           0  0  0
    3.5696   -5.3131    0.0214 N   0  0  0  0  0  3           0  0  0
   -2.0963    0.0280   -0.6092 C   0  0  0  0  0  4           0  0  0
   -0.8178    0.0000    1.1140 C   0  0  0  0  0  4           0  0  0
   -0.8109    0.0232   -1.1184 C   0  0  0  0  0  4           0  0  0
    3.0230   -4.0157   -0.0141 C   0  0  0  0  0  4           0  0  0
    1.9916   -1.3968    0.0000 C   0  0  0  0  0  4           0  0  0
    3.5558   -3.0519    0.8473 C   0  0  0  0  0  4           0  0  0
    1.9774   -3.6663   -0.8747 C   0  0  0  0  0  4           0  0  0
    3.0443   -1.7522    0.8531 C   0  0  0  0  0  4           0  0  0
    1.4697   -2.3639   -0.8689 C   0  0  0  0  0  4           0  0  0
   -0.1257    1.4428   -3.0097 C   0  0  0  0  0  4           0  0  0
    4.5032  -10.0426   -0.8508 C   0  0  0  0  0  4           0  0  0
    3.2278   -6.4321   -0.7170 C   0  0  0  0  0  4           0  0  0
   -0.2018    2.7578   -4.9727 C   0  0  0  0  0  4           0  0  0
    1.4502   -0.0000    0.0000 C   0  0  0  0  0  4           0  0  0
   -0.3354   -0.0151    2.5200 C   0  0  0  0  0  4           0  0  0
   -0.3220    0.0302   -2.5203 C   0  0  0  0  0  4           0  0  0
    3.6657   -8.8428   -1.1974 C   0  0  0  0  0  4           0  0  0
    4.0683   -7.6363   -0.3691 C   0  0  0  0  0  4           0  0  0
   -0.1610   -1.4318    3.0588 C   0  0  0  0  0  4           0  0  0
    0.3342   -1.4589    4.5026 C   0  0  0  0  0  4           0  0  0
    0.5092   -2.8704    5.0431 C   0  0  0  0  0  4           0  0  0
  1 10  1  0     0  0
  2 19  2  0     0  0
  3 20  2  0     0  0
  4 21  2  0     0  0
  5 19  1  0     0  0
  5 22  1  0     0  0
  6 20  1  0     0  0
  7 11  1  0     0  0
  7 12  1  0     0  0
  7 23  1  0     0  0
  8 10  1  0     0  0
  8 11  2  0     0  0
  9 13  1  0     0  0
  9 21  1  0     0  0
 10 12  2  0     0  0
 11 24  1  0     0  0
 12 25  1  0     0  0
 13 15  2  0     0  0
 13 16  1  0     0  0
 14 17  2  0     0  0
 14 18  1  0     0  0
 14 23  1  0     0  0
 15 17  1  0     0  0
 16 18  2  0     0  0
 19 25  1  0     0  0
 20 26  1  0     0  0
 21 27  1  0     0  0
 24 28  1  0     0  0
 26 27  1  0     0  0
 28 29  1  0     0  0
 29 30  1  0     0  0
M  END
> <standard_type>
pIC50

> <# Confs.>
25

> <canonical_smiles>
ClC(N=C1CCCC)=C(CC(OC)=O)N1CC2=CC=C(NC(CCC(O)=O)=O)C=C2

> <standard_relation>
=

> <Publication_ID>
nan

> <predicted_activity_value>
5.045757490560675

> <actual_activity_value>
4.494850021680094

> <Compound>
25

> <standard_units>
nM

> hash
17748807188493933904

$$$$
25_
XXILIB    08252103443D 0   0.00000     0.00000

 30 31  0     1  0            999 V2000
   -3.5514    0.0514   -1.4977 Cl  0  0  0  0  0  1           0  0  0
    0.1058   -2.3614   -2.3634 O   0  0  0  0  0  2           0  0  0
    5.3540   10.0506   -0.0486 O   0  0  0  0  0  2           0  0  0
    5.2152    5.3760    1.5138 O   0  0  0  0  0  2           0  0  0
   -0.3764   -1.3729   -4.3873 O   0  0  0  0  0  2           0  0  0
    7.0128   10.0450    1.5004 O   0  0  0  0  0  2           0  0  0
    0.0000   -0.0000    0.0000 N   0  0  0  0  0  3           0  0  0
   -2.0876    0.0134    0.7607 N   0  0  0  0  0  3           0  0  0
    3.4974    5.3411   -0.0561 N   0  0  0  0  0  3           0  0  0
   -2.0963    0.0280   -0.6092 C   0  0  0  0  0  4           0  0  0
   -0.8178    0.0000    1.1140 C   0  0  0  0  0  4           0  0  0
   -0.8109    0.0232   -1.1184 C   0  0  0  0  0  4           0  0  0
    3.0219    4.0161   -0.0152 C   0  0  0  0  0  4           0  0  0
    1.9916    1.3968    0.0000 C   0  0  0  0  0  4           0  0  0
    1.9635    3.6690   -0.8604 C   0  0  0  0  0  4           0  0  0
    3.5701    3.0490    0.8334 C   0  0  0  0  0  4           0  0  0
    1.4534    2.3688   -0.8531 C   0  0  0  0  0  4           0  0  0
    3.0595    1.7478    0.8361 C   0  0  0  0  0  4           0  0  0
   -0.1671   -1.3775   -3.0381 C   0  0  0  0  0  4           0  0  0
    6.0262    9.4524    0.7826 C   0  0  0  0  0  4           0  0  0
    4.5183    5.9320    0.6670 C   0  0  0  0  0  4           0  0  0
   -0.2576   -2.6458   -5.0310 C   0  0  0  0  0  4           0  0  0
    1.4502    0.0000    0.0000 C   0  0  0  0  0  4           0  0  0
   -0.3354   -0.0151    2.5200 C   0  0  0  0  0  4           0  0  0
   -0.3220    0.0302   -2.5203 C   0  0  0  0  0  4           0  0  0
    5.8358    8.0018    1.1299 C   0  0  0  0  0  4           0  0  0
    4.7094    7.3878    0.3185 C   0  0  0  0  0  4           0  0  0
   -0.1610   -1.4318    3.0588 C   0  0  0  0  0  4           0  0  0
    0.3342   -1.4589    4.5026 C   0  0  0  0  0  4           0  0  0
    0.5092   -2.8704    5.0431 C   0  0  0  0  0  4           0  0  0
  1 10  1  0     0  0
  2 19  2  0     0  0
  3 20  2  0     0  0
  4 21  2  0     0  0
  5 19  1  0     0  0
  5 22  1  0     0  0
  6 20  1  0     0  0
  7 11  1  0     0  0
  7 12  1  0     0  0
  7 23  1  0     0  0
  8 10  1  0     0  0
  8 11  2  0     0  0
  9 13  1  0     0  0
  9 21  1  0     0  0
 10 12  2  0     0  0
 11 24  1  0     0  0
 12 25  1  0     0  0
 13 15  2  0     0  0
 13 16  1  0     0  0
 14 17  2  0     0  0
 14 18  1  0     0  0
 14 23  1  0     0  0
 15 17  1  0     0  0
 16 18  2  0     0  0
 19 25  1  0     0  0
 20 26  1  0     0  0
 21 27  1  0     0  0
 24 28  1  0     0  0
 26 27  1  0     0  0
 28 29  1  0     0  0
 29 30  1  0     0  0
M  END
> <standard_type>
pIC50

> <# Confs.>
25

> <canonical_smiles>
ClC(N=C1CCCC)=C(CC(OC)=O)N1CC2=CC=C(NC(CCC(O)=O)=O)C=C2

> <standard_relation>
=

> <Publication_ID>
nan

> <predicted_activity_value>
5.045757490560675

> <actual_activity_value>
4.494850021680094

> <Compound>
25

> <standard_units>
nM

> hash
17748807188493933904

$$$$
25_
XXILIB    08252103443D 0   0.00000     0.00000

 30 31  0     1  0            999 V2000
   -3.5514    0.0514   -1.4977 Cl  0  0  0  0  0  1           0  0  0
    0.1758    2.4044   -2.3153 O   0  0  0  0  0  2           0  0  0
    5.3920  -10.0359   -0.0078 O   0  0  0  0  0  2           0  0  0
    2.3420   -6.4896   -1.5678 O   0  0  0  0  0  2           0  0  0
   -0.3457    1.4738   -4.3568 O   0  0  0  0  0  2           0  0  0
    4.1625  -11.1497   -1.5566 O   0  0  0  0  0  2           0  0  0
    0.0000   -0.0000    0.0000 N   0  0  0  0  0  3           0  0  0
   -2.0876    0.0134    0.7607 N   0  0  0  0  0  3           0  0  0
    3.5696   -5.3131    0.0214 N   0  0  0  0  0  3           0  0  0
   -2.0963    0.0280   -0.6092 C   0  0  0  0  0  4           0  0  0
   -0.8178    0.0000    1.1140 C   0  0  0  0  0  4           0  0  0
   -0.8109    0.0232   -1.1184 C   0  0  0  0  0  4           0  0  0
    3.0230   -4.0157   -0.0141 C   0  0  0  0  0  4           0  0  0
    1.9916   -1.3968    0.0000 C   0  0  0  0  0  4           0  0  0
    3.5558   -3.0519    0.8473 C   0  0  0  0  0  4           0  0  0
    1.9774   -3.6663   -0.8747 C   0  0  0  0  0  4           0  0  0
    3.0443   -1.7522    0.8531 C   0  0  0  0  0  4           0  0  0
    1.4697   -2.3639   -0.8689 C   0  0  0  0  0  4           0  0  0
   -0.1257    1.4428   -3.0097 C   0  0  0  0  0  4           0  0  0
    4.5032  -10.0426   -0.8508 C   0  0  0  0  0  4           0  0  0
    3.2278   -6.4321   -0.7170 C   0  0  0  0  0  4           0  0  0
   -0.2018    2.7578   -4.9727 C   0  0  0  0  0  4           0  0  0
    1.4502   -0.0000    0.0000 C   0  0  0  0  0  4           0  0  0
   -0.3354   -0.0151    2.5200 C   0  0  0  0  0  4           0  0  0
   -0.3220    0.0302   -2.5203 C   0  0  0  0  0  4           0  0  0
    3.6657   -8.8428   -1.1974 C   0  0  0  0  0  4           0  0  0
    4.0683   -7.6363   -0.3691 C   0  0  0  0  0  4           0  0  0
   -0.1329    1.3898    3.0794 C   0  0  0  0  0  4           0  0  0
   -1.4157    2.2176    3.0785 C   0  0  0  0  0  4           0  0  0
   -1.2173    3.6194    3.6358 C   0  0  0  0  0  4           0  0  0
  1 10  1  0     0  0
  2 19  2  0     0  0
  3 20  2  0     0  0
  4 21  2  0     0  0
  5 19  1  0     0  0
  5 22  1  0     0  0
  6 20  1  0     0  0
  7 11  1  0     0  0
  7 12  1  0     0  0
  7 23  1  0     0  0
  8 10  1  0     0  0
  8 11  2  0     0  0
  9 13  1  0     0  0
  9 21  1  0     0  0
 10 12  2  0     0  0
 11 24  1  0     0  0
 12 25  1  0     0  0
 13 15  2  0     0  0
 13 16  1  0     0  0
 14 17  2  0     0  0
 14 18  1  0     0  0
 14 23  1  0     0  0
 15 17  1  0     0  0
 16 18  2  0     0  0
 19 25  1  0     0  0
 20 26  1  0     0  0
 21 27  1  0     0  0
 24 28  1  0     0  0
 26 27  1  0     0  0
 28 29  1  0     0  0
 29 30  1  0     0  0
M  END
> <standard_type>
pIC50

> <# Confs.>
25

> <canonical_smiles>
ClC(N=C1CCCC)=C(CC(OC)=O)N1CC2=CC=C(NC(CCC(O)=O)=O)C=C2

> <standard_relation>
=

> <Publication_ID>
nan

> <predicted_activity_value>
5.045757490560675

> <actual_activity_value>
4.494850021680094

> <Compound>
25

> <standard_units>
nM

> hash
17748807188493933904

$$$$
25_
XXILIB    08252103443D 0   0.00000     0.00000

 30 31  0     1  0            999 V2000
   -3.5514    0.0514   -1.4977 Cl  0  0  0  0  0  1           0  0  0
    0.1758    2.4044   -2.3153 O   0  0  0  0  0  2           0  0  0
    5.3920  -10.0359   -0.0078 O   0  0  0  0  0  2           0  0  0
    2.3420   -6.4896   -1.5678 O   0  0  0  0  0  2           0  0  0
   -0.3457    1.4738   -4.3568 O   0  0  0  0  0  2           0  0  0
    4.1625  -11.1497   -1.5566 O   0  0  0  0  0  2           0  0  0
    0.0000   -0.0000    0.0000 N   0  0  0  0  0  3           0  0  0
   -2.0876    0.0134    0.7607 N   0  0  0  0  0  3           0  0  0
    3.5696   -5.3131    0.0214 N   0  0  0  0  0  3           0  0  0
   -2.0963    0.0280   -0.6092 C   0  0  0  0  0  4           0  0  0
   -0.8178    0.0000    1.1140 C   0  0  0  0  0  4           0  0  0
   -0.8109    0.0232   -1.1184 C   0  0  0  0  0  4           0  0  0
    3.0230   -4.0157   -0.0141 C   0  0  0  0  0  4           0  0  0
    1.9916   -1.3968    0.0000 C   0  0  0  0  0  4           0  0  0
    3.5558   -3.0519    0.8473 C   0  0  0  0  0  4           0  0  0
    1.9774   -3.6663   -0.8747 C   0  0  0  0  0  4           0  0  0
    3.0443   -1.7522    0.8531 C   0  0  0  0  0  4           0  0  0
    1.4697   -2.3639   -0.8689 C   0  0  0  0  0  4           0  0  0
   -0.1257    1.4428   -3.0097 C   0  0  0  0  0  4           0  0  0
    4.5032  -10.0426   -0.8508 C   0  0  0  0  0  4           0  0  0
    3.2278   -6.4321   -0.7170 C   0  0  0  0  0  4           0  0  0
   -0.2018    2.7578   -4.9727 C   0  0  0  0  0  4           0  0  0
    1.4502   -0.0000    0.0000 C   0  0  0  0  0  4           0  0  0
   -0.3354   -0.0151    2.5200 C   0  0  0  0  0  4           0  0  0
   -0.3220    0.0302   -2.5203 C   0  0  0  0  0  4           0  0  0
    3.6657   -8.8428   -1.1974 C   0  0  0  0  0  4           0  0  0
    4.0683   -7.6363   -0.3691 C   0  0  0  0  0  4           0  0  0
   -1.1006   -1.0116    3.3856 C   0  0  0  0  0  4           0  0  0
   -0.9829   -2.4471    2.8799 C   0  0  0  0  0  4           0  0  0
   -1.7449   -3.4436    3.7410 C   0  0  0  0  0  4           0  0  0
  1 10  1  0     0  0
  2 19  2  0     0  0
  3 20  2  0     0  0
  4 21  2  0     0  0
  5 19  1  0     0  0
  5 22  1  0     0  0
  6 20  1  0     0  0
  7 11  1  0     0  0
  7 12  1  0     0  0
  7 23  1  0     0  0
  8 10  1  0     0  0
  8 11  2  0     0  0
  9 13  1  0     0  0
  9 21  1  0     0  0
 10 12  2  0     0  0
 11 24  1  0     0  0
 12 25  1  0     0  0
 13 15  2  0     0  0
 13 16  1  0     0  0
 14 17  2  0     0  0
 14 18  1  0     0  0
 14 23  1  0     0  0
 15 17  1  0     0  0
 16 18  2  0     0  0
 19 25  1  0     0  0
 20 26  1  0     0  0
 21 27  1  0     0  0
 24 28  1  0     0  0
 26 27  1  0     0  0
 28 29  1  0     0  0
 29 30  1  0     0  0
M  END
> <standard_type>
pIC50

> <# Confs.>
25

> <canonical_smiles>
ClC(N=C1CCCC)=C(CC(OC)=O)N1CC2=CC=C(NC(CCC(O)=O)=O)C=C2

> <standard_relation>
=

> <Publication_ID>
nan

> <predicted_activity_value>
5.045757490560675

> <actual_activity_value>
4.494850021680094

> <Compound>
25

> <standard_units>
nM

> hash
17748807188493933904

$$$$
25_
XXILIB    08252103443D 0   0.00000     0.00000

 30 31  0     1  0            999 V2000
   -3.5514    0.0514   -1.4977 Cl  0  0  0  0  0  1           0  0  0
    0.1758    2.4044   -2.3153 O   0  0  0  0  0  2           0  0  0
    5.3920  -10.0359   -0.0078 O   0  0  0  0  0  2           0  0  0
    2.3420   -6.4896   -1.5678 O   0  0  0  0  0  2           0  0  0
   -0.3457    1.4738   -4.3568 O   0  0  0  0  0  2           0  0  0
    4.1625  -11.1497   -1.5566 O   0  0  0  0  0  2           0  0  0
    0.0000   -0.0000    0.0000 N   0  0  0  0  0  3           0  0  0
   -2.0876    0.0134    0.7607 N   0  0  0  0  0  3           0  0  0
    3.5696   -5.3131    0.0214 N   0  0  0  0  0  3           0  0  0
   -2.0963    0.0280   -0.6092 C   0  0  0  0  0  4           0  0  0
   -0.8178    0.0000    1.1140 C   0  0  0  0  0  4           0  0  0
   -0.8109    0.0232   -1.1184 C   0  0  0  0  0  4           0  0  0
    3.0230   -4.0157   -0.0141 C   0  0  0  0  0  4           0  0  0
    1.9916   -1.3968    0.0000 C   0  0  0  0  0  4           0  0  0
    3.5558   -3.0519    0.8473 C   0  0  0  0  0  4           0  0  0
    1.9774   -3.6663   -0.8747 C   0  0  0  0  0  4           0  0  0
    3.0443   -1.7522    0.8531 C   0  0  0  0  0  4           0  0  0
    1.4697   -2.3639   -0.8689 C   0  0  0  0  0  4           0  0  0
   -0.1257    1.4428   -3.0097 C   0  0  0  0  0  4           0  0  0
    4.5032  -10.0426   -0.8508 C   0  0  0  0  0  4           0  0  0
    3.2278   -6.4321   -0.7170 C   0  0  0  0  0  4           0  0  0
   -0.2018    2.7578   -4.9727 C   0  0  0  0  0  4           0  0  0
    1.4502   -0.0000    0.0000 C   0  0  0  0  0  4           0  0  0
   -0.3354   -0.0151    2.5200 C   0  0  0  0  0  4           0  0  0
   -0.3220    0.0302   -2.5203 C   0  0  0  0  0  4           0  0  0
    3.6657   -8.8428   -1.1974 C   0  0  0  0  0  4           0  0  0
    4.0683   -7.6363   -0.3691 C   0  0  0  0  0  4           0  0  0
   -1.4815   -0.0110    3.5271 C   0  0  0  0  0  4           0  0  0
   -0.9970   -0.0265    4.9747 C   0  0  0  0  0  4           0  0  0
   -2.1376   -0.0225    5.9818 C   0  0  0  0  0  4           0  0  0
  1 10  1  0     0  0
  2 19  2  0     0  0
  3 20  2  0     0  0
  4 21  2  0     0  0
  5 19  1  0     0  0
  5 22  1  0     0  0
  6 20  1  0     0  0
  7 11  1  0     0  0
  7 12  1  0     0  0
  7 23  1  0     0  0
  8 10  1  0     0  0
  8 11  2  0     0  0
  9 13  1  0     0  0
  9 21  1  0     0  0
 10 12  2  0     0  0
 11 24  1  0     0  0
 12 25  1  0     0  0
 13 15  2  0     0  0
 13 16  1  0     0  0
 14 17  2  0     0  0
 14 18  1  0     0  0
 14 23  1  0     0  0
 15 17  1  0     0  0
 16 18  2  0     0  0
 19 25  1  0     0  0
 20 26  1  0     0  0
 21 27  1  0     0  0
 24 28  1  0     0  0
 26 27  1  0     0  0
 28 29  1  0     0  0
 29 30  1  0     0  0
M  END
> <standard_type>
pIC50

> <# Confs.>
25

> <canonical_smiles>
ClC(N=C1CCCC)=C(CC(OC)=O)N1CC2=CC=C(NC(CCC(O)=O)=O)C=C2

> <standard_relation>
=

> <Publication_ID>
nan

> <predicted_activity_value>
5.045757490560675

> <actual_activity_value>
4.494850021680094

> <Compound>
25

> <standard_units>
nM

> hash
17748807188493933904

$$$$
25_
XXILIB    08252103443D 0   0.00000     0.00000

 30 31  0     1  0            999 V2000
   -3.5514    0.0514   -1.4977 Cl  0  0  0  0  0  1           0  0  0
    0.1758    2.4044   -2.3153 O   0  0  0  0  0  2           0  0  0
    5.3095  -10.0679   -0.0289 O   0  0  0  0  0  2           0  0  0
    3.7178   -5.9563    2.1790 O   0  0  0  0  0  2           0  0  0
   -0.3457    1.4738   -4.3568 O   0  0  0  0  0  2           0  0  0
    5.5244  -10.6219    2.1616 O   0  0  0  0  0  2           0  0  0
    0.0000   -0.0000    0.0000 N   0  0  0  0  0  3           0  0  0
   -2.0876    0.0134    0.7607 N   0  0  0  0  0  3           0  0  0
    3.4944   -5.3423   -0.0548 N   0  0  0  0  0  3           0  0  0
   -2.0963    0.0280   -0.6092 C   0  0  0  0  0  4           0  0  0
   -0.8178    0.0000    1.1140 C   0  0  0  0  0  4           0  0  0
   -0.8109    0.0232   -1.1184 C   0  0  0  0  0  4           0  0  0
    2.9894   -4.0287   -0.0008 C   0  0  0  0  0  4           0  0  0
    1.9916   -1.3968   -0.0000 C   0  0  0  0  0  4           0  0  0
    2.7450   -3.3661   -1.2075 C   0  0  0  0  0  4           0  0  0
    2.7272   -3.3757    1.2078 C   0  0  0  0  0  4           0  0  0
    2.2489   -2.0605   -1.2064 C   0  0  0  0  0  4           0  0  0
    2.2277   -2.0701    1.2056 C   0  0  0  0  0  4           0  0  0
   -0.1257    1.4428   -3.0097 C   0  0  0  0  0  4           0  0  0
    5.1880   -9.7772    1.1550 C   0  0  0  0  0  4           0  0  0
    3.8168   -6.2039    0.9787 C   0  0  0  0  0  4           0  0  0
   -0.2018    2.7578   -4.9727 C   0  0  0  0  0  4           0  0  0
    1.4502    0.0000   -0.0000 C   0  0  0  0  0  4           0  0  0
   -0.3354   -0.0151    2.5200 C   0  0  0  0  0  4           0  0  0
   -0.3220    0.0302   -2.5203 C   0  0  0  0  0  4           0  0  0
    4.6747   -8.4518    1.6456 C   0  0  0  0  0  4           0  0  0
    4.3319   -7.5342    0.4862 C   0  0  0  0  0  4           0  0  0
   -1.0807    0.9837    3.4002 C   0  0  0  0  0  4           0  0  0
   -0.5929    0.9764    4.8468 C   0  0  0  0  0  4           0  0  0
   -1.3342    1.9714    5.7275 C   0  0  0  0  0  4           0  0  0
  1 10  1  0     0  0
  2 19  2  0     0  0
  3 20  2  0     0  0
  4 21  2  0     0  0
  5 19  1  0     0  0
  5 22  1  0     0  0
  6 20  1  0     0  0
  7 11  1  0     0  0
  7 12  1  0     0  0
  7 23  1  0     0  0
  8 10  1  0     0  0
  8 11  2  0     0  0
  9 13  1  0     0  0
  9 21  1  0     0  0
 10 12  2  0     0  0
 11 24  1  0     0  0
 12 25  1  0     0  0
 13 15  2  0     0  0
 13 16  1  0     0  0
 14 17  2  0     0  0
 14 18  1  0     0  0
 14 23  1  0     0  0
 15 17  1  0     0  0
 16 18  2  0     0  0
 19 25  1  0     0  0
 20 26  1  0     0  0
 21 27  1  0     0  0
 24 28  1  0     0  0
 26 27  1  0     0  0
 28 29  1  0     0  0
 29 30  1  0     0  0
M  END
> <standard_type>
pIC50

> <# Confs.>
25

> <canonical_smiles>
ClC(N=C1CCCC)=C(CC(OC)=O)N1CC2=CC=C(NC(CCC(O)=O)=O)C=C2

> <standard_relation>
=

> <Publication_ID>
nan

> <predicted_activity_value>
5.045757490560675

> <actual_activity_value>
4.494850021680094

> <Compound>
25

> <standard_units>
nM

> hash
17748807188493933904

$$$$
25_
XXILIB    08252103443D 0   0.00000     0.00000

 30 31  0     1  0            999 V2000
   -3.5514    0.0514   -1.4977 Cl  0  0  0  0  0  1           0  0  0
    0.1058   -2.3614   -2.3634 O   0  0  0  0  0  2           0  0  0
    5.3540   10.0506   -0.0486 O   0  0  0  0  0  2           0  0  0
    5.2152    5.3760    1.5138 O   0  0  0  0  0  2           0  0  0
   -0.3764   -1.3729   -4.3873 O   0  0  0  0  0  2           0  0  0
    7.0128   10.0450    1.5004 O   0  0  0  0  0  2           0  0  0
    0.0000   -0.0000    0.0000 N   0  0  0  0  0  3           0  0  0
   -2.0876    0.0134    0.7607 N   0  0  0  0  0  3           0  0  0
    3.4974    5.3411   -0.0561 N   0  0  0  0  0  3           0  0  0
   -2.0963    0.0280   -0.6092 C   0  0  0  0  0  4           0  0  0
   -0.8178    0.0000    1.1140 C   0  0  0  0  0  4           0  0  0
   -0.8109    0.0232   -1.1184 C   0  0  0  0  0  4           0  0  0
    3.0219    4.0161   -0.0152 C   0  0  0  0  0  4           0  0  0
    1.9916    1.3968    0.0000 C   0  0  0  0  0  4           0  0  0
    1.9635    3.6690   -0.8604 C   0  0  0  0  0  4           0  0  0
    3.5701    3.0490    0.8334 C   0  0  0  0  0  4           0  0  0
    1.4534    2.3688   -0.8531 C   0  0  0  0  0  4           0  0  0
    3.0595    1.7478    0.8361 C   0  0  0  0  0  4           0  0  0
   -0.1671   -1.3775   -3.0381 C   0  0  0  0  0  4           0  0  0
    6.0262    9.4524    0.7826 C   0  0  0  0  0  4           0  0  0
    4.5183    5.9320    0.6670 C   0  0  0  0  0  4           0  0  0
   -0.2576   -2.6458   -5.0310 C   0  0  0  0  0  4           0  0  0
    1.4502    0.0000    0.0000 C   0  0  0  0  0  4           0  0  0
   -0.3354   -0.0151    2.5200 C   0  0  0  0  0  4           0  0  0
   -0.3220    0.0302   -2.5203 C   0  0  0  0  0  4           0  0  0
    5.8358    8.0018    1.1299 C   0  0  0  0  0  4           0  0  0
    4.7094    7.3878    0.3185 C   0  0  0  0  0  4           0  0  0
   -0.1329    1.3898    3.0794 C   0  0  0  0  0  4           0  0  0
    0.3626    1.3859    4.5234 C   0  0  0  0  0  4           0  0  0
    0.5656    2.7855    5.0845 C   0  0  0  0  0  4           0  0  0
  1 10  1  0     0  0
  2 19  2  0     0  0
  3 20  2  0     0  0
  4 21  2  0     0  0
  5 19  1  0     0  0
  5 22  1  0     0  0
  6 20  1  0     0  0
  7 11  1  0     0  0
  7 12  1  0     0  0
  7 23  1  0     0  0
  8 10  1  0     0  0
  8 11  2  0     0  0
  9 13  1  0     0  0
  9 21  1  0     0  0
 10 12  2  0     0  0
 11 24  1  0     0  0
 12 25  1  0     0  0
 13 15  2  0     0  0
 13 16  1  0     0  0
 14 17  2  0     0  0
 14 18  1  0     0  0
 14 23  1  0     0  0
 15 17  1  0     0  0
 16 18  2  0     0  0
 19 25  1  0     0  0
 20 26  1  0     0  0
 21 27  1  0     0  0
 24 28  1  0     0  0
 26 27  1  0     0  0
 28 29  1  0     0  0
 29 30  1  0     0  0
M  END
> <standard_type>
pIC50

> <# Confs.>
25

> <canonical_smiles>
ClC(N=C1CCCC)=C(CC(OC)=O)N1CC2=CC=C(NC(CCC(O)=O)=O)C=C2

> <standard_relation>
=

> <Publication_ID>
nan

> <predicted_activity_value>
5.045757490560675

> <actual_activity_value>
4.494850021680094

> <Compound>
25

> <standard_units>
nM

> hash
17748807188493933904

$$$$
25_
XXILIB    08252103443D 0   0.00000     0.00000

 30 31  0     1  0            999 V2000
   -3.5514    0.0514   -1.4977 Cl  0  0  0  0  0  1           0  0  0
    0.1758    2.4044   -2.3153 O   0  0  0  0  0  2           0  0  0
    5.3095  -10.0679   -0.0289 O   0  0  0  0  0  2           0  0  0
    3.7178   -5.9563    2.1790 O   0  0  0  0  0  2           0  0  0
   -0.3457    1.4738   -4.3568 O   0  0  0  0  0  2           0  0  0
    5.5244  -10.6219    2.1616 O   0  0  0  0  0  2           0  0  0
    0.0000   -0.0000    0.0000 N   0  0  0  0  0  3           0  0  0
   -2.0876    0.0134    0.7607 N   0  0  0  0  0  3           0  0  0
    3.4944   -5.3423   -0.0548 N   0  0  0  0  0  3           0  0  0
   -2.0963    0.0280   -0.6092 C   0  0  0  0  0  4           0  0  0
   -0.8178    0.0000    1.1140 C   0  0  0  0  0  4           0  0  0
   -0.8109    0.0232   -1.1184 C   0  0  0  0  0  4           0  0  0
    2.9894   -4.0287   -0.0008 C   0  0  0  0  0  4           0  0  0
    1.9916   -1.3968   -0.0000 C   0  0  0  0  0  4           0  0  0
    2.7450   -3.3661   -1.2075 C   0  0  0  0  0  4           0  0  0
    2.7272   -3.3757    1.2078 C   0  0  0  0  0  4           0  0  0
    2.2489   -2.0605   -1.2064 C   0  0  0  0  0  4           0  0  0
    2.2277   -2.0701    1.2056 C   0  0  0  0  0  4           0  0  0
   -0.1257    1.4428   -3.0097 C   0  0  0  0  0  4           0  0  0
    5.1880   -9.7772    1.1550 C   0  0  0  0  0  4           0  0  0
    3.8168   -6.2039    0.9787 C   0  0  0  0  0  4           0  0  0
   -0.2018    2.7578   -4.9727 C   0  0  0  0  0  4           0  0  0
    1.4502    0.0000   -0.0000 C   0  0  0  0  0  4           0  0  0
   -0.3354   -0.0151    2.5200 C   0  0  0  0  0  4           0  0  0
   -0.3220    0.0302   -2.5203 C   0  0  0  0  0  4           0  0  0
    4.6747   -8.4518    1.6456 C   0  0  0  0  0  4           0  0  0
    4.3319   -7.5342    0.4862 C   0  0  0  0  0  4           0  0  0
   -1.0807    0.9837    3.4002 C   0  0  0  0  0  4           0  0  0
   -0.9343    2.4239    2.9155 C   0  0  0  0  0  4           0  0  0
   -1.6764    3.4226    3.7913 C   0  0  0  0  0  4           0  0  0
  1 10  1  0     0  0
  2 19  2  0     0  0
  3 20  2  0     0  0
  4 21  2  0     0  0
  5 19  1  0     0  0
  5 22  1  0     0  0
  6 20  1  0     0  0
  7 11  1  0     0  0
  7 12  1  0     0  0
  7 23  1  0     0  0
  8 10  1  0     0  0
  8 11  2  0     0  0
  9 13  1  0     0  0
  9 21  1  0     0  0
 10 12  2  0     0  0
 11 24  1  0     0  0
 12 25  1  0     0  0
 13 15  2  0     0  0
 13 16  1  0     0  0
 14 17  2  0     0  0
 14 18  1  0     0  0
 14 23  1  0     0  0
 15 17  1  0     0  0
 16 18  2  0     0  0
 19 25  1  0     0  0
 20 26  1  0     0  0
 21 27  1  0     0  0
 24 28  1  0     0  0
 26 27  1  0     0  0
 28 29  1  0     0  0
 29 30  1  0     0  0
M  END
> <standard_type>
pIC50

> <# Confs.>
25

> <canonical_smiles>
ClC(N=C1CCCC)=C(CC(OC)=O)N1CC2=CC=C(NC(CCC(O)=O)=O)C=C2

> <standard_relation>
=

> <Publication_ID>
nan

> <predicted_activity_value>
5.045757490560675

> <actual_activity_value>
4.494850021680094

> <Compound>
25

> <standard_units>
nM

> hash
17748807188493933904

$$$$
25_
XXILIB    08252103443D 0   0.00000     0.00000

 30 31  0     1  0            999 V2000
   -3.5514    0.0514   -1.4977 Cl  0  0  0  0  0  1           0  0  0
    0.1758    2.4044   -2.3153 O   0  0  0  0  0  2           0  0  0
    1.6834   -8.4956    0.7818 O   0  0  0  0  0  2           0  0  0
    3.7178   -5.9563    2.1790 O   0  0  0  0  0  2           0  0  0
   -0.3457    1.4738   -4.3568 O   0  0  0  0  0  2           0  0  0
    2.1615   -9.2426    2.8709 O   0  0  0  0  0  2           0  0  0
    0.0000   -0.0000    0.0000 N   0  0  0  0  0  3           0  0  0
   -2.0876    0.0134    0.7607 N   0  0  0  0  0  3           0  0  0
    3.4944   -5.3423   -0.0548 N   0  0  0  0  0  3           0  0  0
   -2.0963    0.0280   -0.6092 C   0  0  0  0  0  4           0  0  0
   -0.8178    0.0000    1.1140 C   0  0  0  0  0  4           0  0  0
   -0.8109    0.0232   -1.1184 C   0  0  0  0  0  4           0  0  0
    2.9894   -4.0287   -0.0008 C   0  0  0  0  0  4           0  0  0
    1.9916   -1.3968   -0.0000 C   0  0  0  0  0  4           0  0  0
    2.7450   -3.3661   -1.2075 C   0  0  0  0  0  4           0  0  0
    2.7272   -3.3757    1.2078 C   0  0  0  0  0  4           0  0  0
    2.2489   -2.0605   -1.2064 C   0  0  0  0  0  4           0  0  0
    2.2277   -2.0701    1.2056 C   0  0  0  0  0  4           0  0  0
   -0.1257    1.4428   -3.0097 C   0  0  0  0  0  4           0  0  0
    2.5061   -8.7718    1.6464 C   0  0  0  0  0  4           0  0  0
    3.8168   -6.2039    0.9787 C   0  0  0  0  0  4           0  0  0
   -0.2018    2.7578   -4.9727 C   0  0  0  0  0  4           0  0  0
    1.4502    0.0000   -0.0000 C   0  0  0  0  0  4           0  0  0
   -0.3354   -0.0151    2.5200 C   0  0  0  0  0  4           0  0  0
   -0.3220    0.0302   -2.5203 C   0  0  0  0  0  4           0  0  0
    3.9931   -8.6473    1.4608 C   0  0  0  0  0  4           0  0  0
    4.3319   -7.5342    0.4862 C   0  0  0  0  0  4           0  0  0
   -1.0807    0.9837    3.4002 C   0  0  0  0  0  4           0  0  0
   -0.5929    0.9764    4.8468 C   0  0  0  0  0  4           0  0  0
   -1.3342    1.9714    5.7275 C   0  0  0  0  0  4           0  0  0
  1 10  1  0     0  0
  2 19  2  0     0  0
  3 20  2  0     0  0
  4 21  2  0     0  0
  5 19  1  0     0  0
  5 22  1  0     0  0
  6 20  1  0     0  0
  7 11  1  0     0  0
  7 12  1  0     0  0
  7 23  1  0     0  0
  8 10  1  0     0  0
  8 11  2  0     0  0
  9 13  1  0     0  0
  9 21  1  0     0  0
 10 12  2  0     0  0
 11 24  1  0     0  0
 12 25  1  0     0  0
 13 15  2  0     0  0
 13 16  1  0     0  0
 14 17  2  0     0  0
 14 18  1  0     0  0
 14 23  1  0     0  0
 15 17  1  0     0  0
 16 18  2  0     0  0
 19 25  1  0     0  0
 20 26  1  0     0  0
 21 27  1  0     0  0
 24 28  1  0     0  0
 26 27  1  0     0  0
 28 29  1  0     0  0
 29 30  1  0     0  0
M  END
> <standard_type>
pIC50

> <# Confs.>
25

> <canonical_smiles>
ClC(N=C1CCCC)=C(CC(OC)=O)N1CC2=CC=C(NC(CCC(O)=O)=O)C=C2

> <standard_relation>
=

> <Publication_ID>
nan

> <predicted_activity_value>
5.045757490560675

> <actual_activity_value>
4.494850021680094

> <Compound>
25

> <standard_units>
nM

> hash
17748807188493933904

$$$$
25_
XXILIB    08252103443D 0   0.00000     0.00000

 30 31  0     1  0            999 V2000
   -3.5514    0.0514   -1.4977 Cl  0  0  0  0  0  1           0  0  0
    0.1758    2.4044   -2.3153 O   0  0  0  0  0  2           0  0  0
    1.6834   -8.4956    0.7818 O   0  0  0  0  0  2           0  0  0
    3.7178   -5.9563    2.1790 O   0  0  0  0  0  2           0  0  0
   -0.3457    1.4738   -4.3568 O   0  0  0  0  0  2           0  0  0
    2.1615   -9.2426    2.8709 O   0  0  0  0  0  2           0  0  0
    0.0000   -0.0000    0.0000 N   0  0  0  0  0  3           0  0  0
   -2.0876    0.0134    0.7607 N   0  0  0  0  0  3           0  0  0
    3.4944   -5.3423   -0.0548 N   0  0  0  0  0  3           0  0  0
   -2.0963    0.0280   -0.6092 C   0  0  0  0  0  4           0  0  0
   -0.8178    0.0000    1.1140 C   0  0  0  0  0  4           0  0  0
   -0.8109    0.0232   -1.1184 C   0  0  0  0  0  4           0  0  0
    2.9894   -4.0287   -0.0008 C   0  0  0  0  0  4           0  0  0
    1.9916   -1.3968   -0.0000 C   0  0  0  0  0  4           0  0  0
    2.7450   -3.3661   -1.2075 C   0  0  0  0  0  4           0  0  0
    2.7272   -3.3757    1.2078 C   0  0  0  0  0  4           0  0  0
    2.2489   -2.0605   -1.2064 C   0  0  0  0  0  4           0  0  0
    2.2277   -2.0701    1.2056 C   0  0  0  0  0  4           0  0  0
   -0.1257    1.4428   -3.0097 C   0  0  0  0  0  4           0  0  0
    2.5061   -8.7718    1.6464 C   0  0  0  0  0  4           0  0  0
    3.8168   -6.2039    0.9787 C   0  0  0  0  0  4           0  0  0
   -0.2018    2.7578   -4.9727 C   0  0  0  0  0  4           0  0  0
    1.4502    0.0000   -0.0000 C   0  0  0  0  0  4           0  0  0
   -0.3354   -0.0151    2.5200 C   0  0  0  0  0  4           0  0  0
   -0.3220    0.0302   -2.5203 C   0  0  0  0  0  4           0  0  0
    3.9931   -8.6473    1.4608 C   0  0  0  0  0  4           0  0  0
    4.3319   -7.5342    0.4862 C   0  0  0  0  0  4           0  0  0
   -1.0807    0.9837    3.4002 C   0  0  0  0  0  4           0  0  0
   -0.9343    2.4239    2.9155 C   0  0  0  0  0  4           0  0  0
   -1.6764    3.4226    3.7913 C   0  0  0  0  0  4           0  0  0
  1 10  1  0     0  0
  2 19  2  0     0  0
  3 20  2  0     0  0
  4 21  2  0     0  0
  5 19  1  0     0  0
  5 22  1  0     0  0
  6 20  1  0     0  0
  7 11  1  0     0  0
  7 12  1  0     0  0
  7 23  1  0     0  0
  8 10  1  0     0  0
  8 11  2  0     0  0
  9 13  1  0     0  0
  9 21  1  0     0  0
 10 12  2  0     0  0
 11 24  1  0     0  0
 12 25  1  0     0  0
 13 15  2  0     0  0
 13 16  1  0     0  0
 14 17  2  0     0  0
 14 18  1  0     0  0
 14 23  1  0     0  0
 15 17  1  0     0  0
 16 18  2  0     0  0
 19 25  1  0     0  0
 20 26  1  0     0  0
 21 27  1  0     0  0
 24 28  1  0     0  0
 26 27  1  0     0  0
 28 29  1  0     0  0
 29 30  1  0     0  0
M  END
> <standard_type>
pIC50

> <# Confs.>
25

> <canonical_smiles>
ClC(N=C1CCCC)=C(CC(OC)=O)N1CC2=CC=C(NC(CCC(O)=O)=O)C=C2

> <standard_relation>
=

> <Publication_ID>
nan

> <predicted_activity_value>
5.045757490560675

> <actual_activity_value>
4.494850021680094

> <Compound>
25

> <standard_units>
nM

> hash
17748807188493933904

$$$$
25_
XXILIB    08252103443D 0   0.00000     0.00000

 30 31  0     1  0            999 V2000
   -3.5514    0.0514   -1.4977 Cl  0  0  0  0  0  1           0  0  0
    0.1058   -2.3614   -2.3634 O   0  0  0  0  0  2           0  0  0
    5.3540   10.0506   -0.0486 O   0  0  0  0  0  2           0  0  0
    5.2152    5.3760    1.5138 O   0  0  0  0  0  2           0  0  0
   -0.3764   -1.3729   -4.3873 O   0  0  0  0  0  2           0  0  0
    7.0128   10.0450    1.5004 O   0  0  0  0  0  2           0  0  0
    0.0000   -0.0000    0.0000 N   0  0  0  0  0  3           0  0  0
   -2.0876    0.0134    0.7607 N   0  0  0  0  0  3           0  0  0
    3.4974    5.3411   -0.0561 N   0  0  0  0  0  3           0  0  0
   -2.0963    0.0280   -0.6092 C   0  0  0  0  0  4           0  0  0
   -0.8178    0.0000    1.1140 C   0  0  0  0  0  4           0  0  0
   -0.8109    0.0232   -1.1184 C   0  0  0  0  0  4           0  0  0
    3.0219    4.0161   -0.0152 C   0  0  0  0  0  4           0  0  0
    1.9916    1.3968    0.0000 C   0  0  0  0  0  4           0  0  0
    1.9635    3.6690   -0.8604 C   0  0  0  0  0  4           0  0  0
    3.5701    3.0490    0.8334 C   0  0  0  0  0  4           0  0  0
    1.4534    2.3688   -0.8531 C   0  0  0  0  0  4           0  0  0
    3.0595    1.7478    0.8361 C   0  0  0  0  0  4           0  0  0
   -0.1671   -1.3775   -3.0381 C   0  0  0  0  0  4           0  0  0
    6.0262    9.4524    0.7826 C   0  0  0  0  0  4           0  0  0
    4.5183    5.9320    0.6670 C   0  0  0  0  0  4           0  0  0
   -0.2576   -2.6458   -5.0310 C   0  0  0  0  0  4           0  0  0
    1.4502    0.0000    0.0000 C   0  0  0  0  0  4           0  0  0
   -0.3354   -0.0151    2.5200 C   0  0  0  0  0  4           0  0  0
   -0.3220    0.0302   -2.5203 C   0  0  0  0  0  4           0  0  0
    5.8358    8.0018    1.1299 C   0  0  0  0  0  4           0  0  0
    4.7094    7.3878    0.3185 C   0  0  0  0  0  4           0  0  0
   -0.1610   -1.4318    3.0588 C   0  0  0  0  0  4           0  0  0
   -1.4600   -2.2337    3.0459 C   0  0  0  0  0  4           0  0  0
   -1.2897   -3.6472    3.5827 C   0  0  0  0  0  4           0  0  0
  1 10  1  0     0  0
  2 19  2  0     0  0
  3 20  2  0     0  0
  4 21  2  0     0  0
  5 19  1  0     0  0
  5 22  1  0     0  0
  6 20  1  0     0  0
  7 11  1  0     0  0
  7 12  1  0     0  0
  7 23  1  0     0  0
  8 10  1  0     0  0
  8 11  2  0     0  0
  9 13  1  0     0  0
  9 21  1  0     0  0
 10 12  2  0     0  0
 11 24  1  0     0  0
 12 25  1  0     0  0
 13 15  2  0     0  0
 13 16  1  0     0  0
 14 17  2  0     0  0
 14 18  1  0     0  0
 14 23  1  0     0  0
 15 17  1  0     0  0
 16 18  2  0     0  0
 19 25  1  0     0  0
 20 26  1  0     0  0
 21 27  1  0     0  0
 24 28  1  0     0  0
 26 27  1  0     0  0
 28 29  1  0     0  0
 29 30  1  0     0  0
M  END
> <standard_type>
pIC50

> <# Confs.>
25

> <canonical_smiles>
ClC(N=C1CCCC)=C(CC(OC)=O)N1CC2=CC=C(NC(CCC(O)=O)=O)C=C2

> <standard_relation>
=

> <Publication_ID>
nan

> <predicted_activity_value>
5.045757490560675

> <actual_activity_value>
4.494850021680094

> <Compound>
25

> <standard_units>
nM

> hash
17748807188493933904

$$$$
25_
XXILIB    08252103443D 0   0.00000     0.00000

 30 31  0     1  0            999 V2000
   -3.5514    0.0514   -1.4977 Cl  0  0  0  0  0  1           0  0  0
    0.1058   -2.3614   -2.3634 O   0  0  0  0  0  2           0  0  0
    5.3540   10.0506   -0.0486 O   0  0  0  0  0  2           0  0  0
    5.2152    5.3760    1.5138 O   0  0  0  0  0  2           0  0  0
   -0.3764   -1.3729   -4.3873 O   0  0  0  0  0  2           0  0  0
    7.0128   10.0450    1.5004 O   0  0  0  0  0  2           0  0  0
    0.0000   -0.0000    0.0000 N   0  0  0  0  0  3           0  0  0
   -2.0876    0.0134    0.7607 N   0  0  0  0  0  3           0  0  0
    3.4974    5.3411   -0.0561 N   0  0  0  0  0  3           0  0  0
   -2.0963    0.0280   -0.6092 C   0  0  0  0  0  4           0  0  0
   -0.8178    0.0000    1.1140 C   0  0  0  0  0  4           0  0  0
   -0.8109    0.0232   -1.1184 C   0  0  0  0  0  4           0  0  0
    3.0219    4.0161   -0.0152 C   0  0  0  0  0  4           0  0  0
    1.9916    1.3968    0.0000 C   0  0  0  0  0  4           0  0  0
    1.9635    3.6690   -0.8604 C   0  0  0  0  0  4           0  0  0
    3.5701    3.0490    0.8334 C   0  0  0  0  0  4           0  0  0
    1.4534    2.3688   -0.8531 C   0  0  0  0  0  4           0  0  0
    3.0595    1.7478    0.8361 C   0  0  0  0  0  4           0  0  0
   -0.1671   -1.3775   -3.0381 C   0  0  0  0  0  4           0  0  0
    6.0262    9.4524    0.7826 C   0  0  0  0  0  4           0  0  0
    4.5183    5.9320    0.6670 C   0  0  0  0  0  4           0  0  0
   -0.2576   -2.6458   -5.0310 C   0  0  0  0  0  4           0  0  0
    1.4502    0.0000    0.0000 C   0  0  0  0  0  4           0  0  0
   -0.3354   -0.0151    2.5200 C   0  0  0  0  0  4           0  0  0
   -0.3220    0.0302   -2.5203 C   0  0  0  0  0  4           0  0  0
    5.8358    8.0018    1.1299 C   0  0  0  0  0  4           0  0  0
    4.7094    7.3878    0.3185 C   0  0  0  0  0  4           0  0  0
   -1.4815   -0.0110    3.5271 C   0  0  0  0  0  4           0  0  0
   -0.9970   -0.0265    4.9747 C   0  0  0  0  0  4           0  0  0
   -2.1376   -0.0225    5.9818 C   0  0  0  0  0  4           0  0  0
  1 10  1  0     0  0
  2 19  2  0     0  0
  3 20  2  0     0  0
  4 21  2  0     0  0
  5 19  1  0     0  0
  5 22  1  0     0  0
  6 20  1  0     0  0
  7 11  1  0     0  0
  7 12  1  0     0  0
  7 23  1  0     0  0
  8 10  1  0     0  0
  8 11  2  0     0  0
  9 13  1  0     0  0
  9 21  1  0     0  0
 10 12  2  0     0  0
 11 24  1  0     0  0
 12 25  1  0     0  0
 13 15  2  0     0  0
 13 16  1  0     0  0
 14 17  2  0     0  0
 14 18  1  0     0  0
 14 23  1  0     0  0
 15 17  1  0     0  0
 16 18  2  0     0  0
 19 25  1  0     0  0
 20 26  1  0     0  0
 21 27  1  0     0  0
 24 28  1  0     0  0
 26 27  1  0     0  0
 28 29  1  0     0  0
 29 30  1  0     0  0
M  END
> <standard_type>
pIC50

> <# Confs.>
25

> <canonical_smiles>
ClC(N=C1CCCC)=C(CC(OC)=O)N1CC2=CC=C(NC(CCC(O)=O)=O)C=C2

> <standard_relation>
=

> <Publication_ID>
nan

> <predicted_activity_value>
5.045757490560675

> <actual_activity_value>
4.494850021680094

> <Compound>
25

> <standard_units>
nM

> hash
17748807188493933904

$$$$
25_
XXILIB    08252103443D 0   0.00000     0.00000

 30 31  0     1  0            999 V2000
   -3.5514    0.0514   -1.4977 Cl  0  0  0  0  0  1           0  0  0
    0.1058   -2.3614   -2.3634 O   0  0  0  0  0  2           0  0  0
    5.3540   10.0506   -0.0486 O   0  0  0  0  0  2           0  0  0
    5.2152    5.3760    1.5138 O   0  0  0  0  0  2           0  0  0
   -0.3764   -1.3729   -4.3873 O   0  0  0  0  0  2           0  0  0
    7.0128   10.0450    1.5004 O   0  0  0  0  0  2           0  0  0
    0.0000   -0.0000    0.0000 N   0  0  0  0  0  3           0  0  0
   -2.0876    0.0134    0.7607 N   0  0  0  0  0  3           0  0  0
    3.4974    5.3411   -0.0561 N   0  0  0  0  0  3           0  0  0
   -2.0963    0.0280   -0.6092 C   0  0  0  0  0  4           0  0  0
   -0.8178    0.0000    1.1140 C   0  0  0  0  0  4           0  0  0
   -0.8109    0.0232   -1.1184 C   0  0  0  0  0  4           0  0  0
    3.0219    4.0161   -0.0152 C   0  0  0  0  0  4           0  0  0
    1.9916    1.3968    0.0000 C   0  0  0  0  0  4           0  0  0
    1.9635    3.6690   -0.8604 C   0  0  0  0  0  4           0  0  0
    3.5701    3.0490    0.8334 C   0  0  0  0  0  4           0  0  0
    1.4534    2.3688   -0.8531 C   0  0  0  0  0  4           0  0  0
    3.0595    1.7478    0.8361 C   0  0  0  0  0  4           0  0  0
   -0.1671   -1.3775   -3.0381 C   0  0  0  0  0  4           0  0  0
    6.0262    9.4524    0.7826 C   0  0  0  0  0  4           0  0  0
    4.5183    5.9320    0.6670 C   0  0  0  0  0  4           0  0  0
   -0.2576   -2.6458   -5.0310 C   0  0  0  0  0  4           0  0  0
    1.4502    0.0000    0.0000 C   0  0  0  0  0  4           0  0  0
   -0.3354   -0.0151    2.5200 C   0  0  0  0  0  4           0  0  0
   -0.3220    0.0302   -2.5203 C   0  0  0  0  0  4           0  0  0
    5.8358    8.0018    1.1299 C   0  0  0  0  0  4           0  0  0
    4.7094    7.3878    0.3185 C   0  0  0  0  0  4           0  0  0
   -1.0807    0.9837    3.4002 C   0  0  0  0  0  4           0  0  0
   -0.9343    2.4239    2.9155 C   0  0  0  0  0  4           0  0  0
   -1.6764    3.4226    3.7913 C   0  0  0  0  0  4           0  0  0
  1 10  1  0     0  0
  2 19  2  0     0  0
  3 20  2  0     0  0
  4 21  2  0     0  0
  5 19  1  0     0  0
  5 22  1  0     0  0
  6 20  1  0     0  0
  7 11  1  0     0  0
  7 12  1  0     0  0
  7 23  1  0     0  0
  8 10  1  0     0  0
  8 11  2  0     0  0
  9 13  1  0     0  0
  9 21  1  0     0  0
 10 12  2  0     0  0
 11 24  1  0     0  0
 12 25  1  0     0  0
 13 15  2  0     0  0
 13 16  1  0     0  0
 14 17  2  0     0  0
 14 18  1  0     0  0
 14 23  1  0     0  0
 15 17  1  0     0  0
 16 18  2  0     0  0
 19 25  1  0     0  0
 20 26  1  0     0  0
 21 27  1  0     0  0
 24 28  1  0     0  0
 26 27  1  0     0  0
 28 29  1  0     0  0
 29 30  1  0     0  0
M  END
> <standard_type>
pIC50

> <# Confs.>
25

> <canonical_smiles>
ClC(N=C1CCCC)=C(CC(OC)=O)N1CC2=CC=C(NC(CCC(O)=O)=O)C=C2

> <standard_relation>
=

> <Publication_ID>
nan

> <predicted_activity_value>
5.045757490560675

> <actual_activity_value>
4.494850021680094

> <Compound>
25

> <standard_units>
nM

> hash
17748807188493933904

$$$$
25_
XXILIB    08252103443D 0   0.00000     0.00000

 30 31  0     1  0            999 V2000
   -3.5514    0.0514   -1.4977 Cl  0  0  0  0  0  1           0  0  0
   -0.8321   -2.3443   -2.6904 O   0  0  0  0  0  2           0  0  0
    5.3540  -10.0506    0.0486 O   0  0  0  0  0  2           0  0  0
    5.2152   -5.3760   -1.5138 O   0  0  0  0  0  2           0  0  0
    0.8429   -1.3972   -3.9566 O   0  0  0  0  0  2           0  0  0
    7.0128  -10.0450   -1.5004 O   0  0  0  0  0  2           0  0  0
    0.0000   -0.0000    0.0000 N   0  0  0  0  0  3           0  0  0
   -2.0876    0.0134    0.7607 N   0  0  0  0  0  3           0  0  0
    3.4974   -5.3411    0.0561 N   0  0  0  0  0  3           0  0  0
   -2.0963    0.0280   -0.6092 C   0  0  0  0  0  4           0  0  0
   -0.8178    0.0000    1.1140 C   0  0  0  0  0  4           0  0  0
   -0.8109    0.0232   -1.1184 C   0  0  0  0  0  4           0  0  0
    3.0219   -4.0161    0.0152 C   0  0  0  0  0  4           0  0  0
    1.9916   -1.3968    0.0000 C   0  0  0  0  0  4           0  0  0
    1.9635   -3.6690    0.8604 C   0  0  0  0  0  4           0  0  0
    3.5701   -3.0490   -0.8334 C   0  0  0  0  0  4           0  0  0
    1.4534   -2.3688    0.8531 C   0  0  0  0  0  4           0  0  0
    3.0595   -1.7478   -0.8361 C   0  0  0  0  0  4           0  0  0
   -0.1671   -1.3775   -3.0381 C   0  0  0  0  0  4           0  0  0
    6.0262   -9.4524   -0.7826 C   0  0  0  0  0  4           0  0  0
    4.5183   -5.9320   -0.6670 C   0  0  0  0  0  4           0  0  0
    1.1172   -2.6752   -4.5397 C   0  0  0  0  0  4           0  0  0
    1.4502   -0.0000   -0.0000 C   0  0  0  0  0  4           0  0  0
   -0.3354   -0.0151    2.5200 C   0  0  0  0  0  4           0  0  0
   -0.3220    0.0302   -2.5203 C   0  0  0  0  0  4           0  0  0
    5.8358   -8.0018   -1.1299 C   0  0  0  0  0  4           0  0  0
    4.7094   -7.3878   -0.3185 C   0  0  0  0  0  4           0  0  0
   -1.0807    0.9837    3.4002 C   0  0  0  0  0  4           0  0  0
   -0.5929    0.9764    4.8468 C   0  0  0  0  0  4           0  0  0
   -1.3342    1.9714    5.7275 C   0  0  0  0  0  4           0  0  0
  1 10  1  0     0  0
  2 19  2  0     0  0
  3 20  2  0     0  0
  4 21  2  0     0  0
  5 19  1  0     0  0
  5 22  1  0     0  0
  6 20  1  0     0  0
  7 11  1  0     0  0
  7 12  1  0     0  0
  7 23  1  0     0  0
  8 10  1  0     0  0
  8 11  2  0     0  0
  9 13  1  0     0  0
  9 21  1  0     0  0
 10 12  2  0     0  0
 11 24  1  0     0  0
 12 25  1  0     0  0
 13 15  2  0     0  0
 13 16  1  0     0  0
 14 17  2  0     0  0
 14 18  1  0     0  0
 14 23  1  0     0  0
 15 17  1  0     0  0
 16 18  2  0     0  0
 19 25  1  0     0  0
 20 26  1  0     0  0
 21 27  1  0     0  0
 24 28  1  0     0  0
 26 27  1  0     0  0
 28 29  1  0     0  0
 29 30  1  0     0  0
M  END
> <standard_type>
pIC50

> <# Confs.>
25

> <canonical_smiles>
ClC(N=C1CCCC)=C(CC(OC)=O)N1CC2=CC=C(NC(CCC(O)=O)=O)C=C2

> <standard_relation>
=

> <Publication_ID>
nan

> <predicted_activity_value>
5.045757490560675

> <actual_activity_value>
4.494850021680094

> <Compound>
25

> <standard_units>
nM

> hash
17748807188493933904

$$$$
25_
XXILIB    08252103443D 0   0.00000     0.00000

 30 31  0     1  0            999 V2000
   -3.5514    0.0514   -1.4977 Cl  0  0  0  0  0  1           0  0  0
   -0.8321   -2.3443   -2.6904 O   0  0  0  0  0  2           0  0  0
    5.3540  -10.0506    0.0486 O   0  0  0  0  0  2           0  0  0
    5.2152   -5.3760   -1.5138 O   0  0  0  0  0  2           0  0  0
    0.8429   -1.3972   -3.9566 O   0  0  0  0  0  2           0  0  0
    7.0128  -10.0450   -1.5004 O   0  0  0  0  0  2           0  0  0
    0.0000   -0.0000    0.0000 N   0  0  0  0  0  3           0  0  0
   -2.0876    0.0134    0.7607 N   0  0  0  0  0  3           0  0  0
    3.4974   -5.3411    0.0561 N   0  0  0  0  0  3           0  0  0
   -2.0963    0.0280   -0.6092 C   0  0  0  0  0  4           0  0  0
   -0.8178    0.0000    1.1140 C   0  0  0  0  0  4           0  0  0
   -0.8109    0.0232   -1.1184 C   0  0  0  0  0  4           0  0  0
    3.0219   -4.0161    0.0152 C   0  0  0  0  0  4           0  0  0
    1.9916   -1.3968    0.0000 C   0  0  0  0  0  4           0  0  0
    1.9635   -3.6690    0.8604 C   0  0  0  0  0  4           0  0  0
    3.5701   -3.0490   -0.8334 C   0  0  0  0  0  4           0  0  0
    1.4534   -2.3688    0.8531 C   0  0  0  0  0  4           0  0  0
    3.0595   -1.7478   -0.8361 C   0  0  0  0  0  4           0  0  0
   -0.1671   -1.3775   -3.0381 C   0  0  0  0  0  4           0  0  0
    6.0262   -9.4524   -0.7826 C   0  0  0  0  0  4           0  0  0
    4.5183   -5.9320   -0.6670 C   0  0  0  0  0  4           0  0  0
    1.1172   -2.6752   -4.5397 C   0  0  0  0  0  4           0  0  0
    1.4502   -0.0000   -0.0000 C   0  0  0  0  0  4           0  0  0
   -0.3354   -0.0151    2.5200 C   0  0  0  0  0  4           0  0  0
   -0.3220    0.0302   -2.5203 C   0  0  0  0  0  4           0  0  0
    5.8358   -8.0018   -1.1299 C   0  0  0  0  0  4           0  0  0
    4.7094   -7.3878   -0.3185 C   0  0  0  0  0  4           0  0  0
   -1.1006   -1.0116    3.3856 C   0  0  0  0  0  4           0  0  0
   -0.6130   -1.0352    4.8321 C   0  0  0  0  0  4           0  0  0
   -1.3740   -2.0280    5.6983 C   0  0  0  0  0  4           0  0  0
  1 10  1  0     0  0
  2 19  2  0     0  0
  3 20  2  0     0  0
  4 21  2  0     0  0
  5 19  1  0     0  0
  5 22  1  0     0  0
  6 20  1  0     0  0
  7 11  1  0     0  0
  7 12  1  0     0  0
  7 23  1  0     0  0
  8 10  1  0     0  0
  8 11  2  0     0  0
  9 13  1  0     0  0
  9 21  1  0     0  0
 10 12  2  0     0  0
 11 24  1  0     0  0
 12 25  1  0     0  0
 13 15  2  0     0  0
 13 16  1  0     0  0
 14 17  2  0     0  0
 14 18  1  0     0  0
 14 23  1  0     0  0
 15 17  1  0     0  0
 16 18  2  0     0  0
 19 25  1  0     0  0
 20 26  1  0     0  0
 21 27  1  0     0  0
 24 28  1  0     0  0
 26 27  1  0     0  0
 28 29  1  0     0  0
 29 30  1  0     0  0
M  END
> <standard_type>
pIC50

> <# Confs.>
25

> <canonical_smiles>
ClC(N=C1CCCC)=C(CC(OC)=O)N1CC2=CC=C(NC(CCC(O)=O)=O)C=C2

> <standard_relation>
=

> <Publication_ID>
nan

> <predicted_activity_value>
5.045757490560675

> <actual_activity_value>
4.494850021680094

> <Compound>
25

> <standard_units>
nM

> hash
17748807188493933904

$$$$
25_
XXILIB    08252103443D 0   0.00000     0.00000

 30 31  0     1  0            999 V2000
   -3.5514    0.0514   -1.4977 Cl  0  0  0  0  0  1           0  0  0
    0.1058   -2.3614   -2.3634 O   0  0  0  0  0  2           0  0  0
    5.3095   10.0679    0.0289 O   0  0  0  0  0  2           0  0  0
    3.7178    5.9563   -2.1790 O   0  0  0  0  0  2           0  0  0
   -0.3764   -1.3729   -4.3873 O   0  0  0  0  0  2           0  0  0
    5.5244   10.6219   -2.1616 O   0  0  0  0  0  2           0  0  0
    0.0000   -0.0000    0.0000 N   0  0  0  0  0  3           0  0  0
   -2.0876    0.0134    0.7607 N   0  0  0  0  0  3           0  0  0
    3.4944    5.3423    0.0548 N   0  0  0  0  0  3           0  0  0
   -2.0963    0.0280   -0.6092 C   0  0  0  0  0  4           0  0  0
   -0.8178    0.0000    1.1140 C   0  0  0  0  0  4           0  0  0
   -0.8109    0.0232   -1.1184 C   0  0  0  0  0  4           0  0  0
    2.9894    4.0287    0.0008 C   0  0  0  0  0  4           0  0  0
    1.9916    1.3968    0.0000 C   0  0  0  0  0  4           0  0  0
    2.7450    3.3661    1.2075 C   0  0  0  0  0  4           0  0  0
    2.7272    3.3757   -1.2078 C   0  0  0  0  0  4           0  0  0
    2.2489    2.0605    1.2064 C   0  0  0  0  0  4           0  0  0
    2.2277    2.0701   -1.2056 C   0  0  0  0  0  4           0  0  0
   -0.1671   -1.3775   -3.0381 C   0  0  0  0  0  4           0  0  0
    5.1880    9.7772   -1.1550 C   0  0  0  0  0  4           0  0  0
    3.8168    6.2039   -0.9787 C   0  0  0  0  0  4           0  0  0
   -0.2576   -2.6458   -5.0310 C   0  0  0  0  0  4           0  0  0
    1.4502   -0.0000   -0.0000 C   0  0  0  0  0  4           0  0  0
   -0.3354   -0.0151    2.5200 C   0  0  0  0  0  4           0  0  0
   -0.3220    0.0302   -2.5203 C   0  0  0  0  0  4           0  0  0
    4.6747    8.4518   -1.6456 C   0  0  0  0  0  4           0  0  0
    4.3319    7.5342   -0.4862 C   0  0  0  0  0  4           0  0  0
   -1.1006   -1.0116    3.3856 C   0  0  0  0  0  4           0  0  0
   -0.6130   -1.0352    4.8321 C   0  0  0  0  0  4           0  0  0
   -1.3740   -2.0280    5.6983 C   0  0  0  0  0  4           0  0  0
  1 10  1  0     0  0
  2 19  2  0     0  0
  3 20  2  0     0  0
  4 21  2  0     0  0
  5 19  1  0     0  0
  5 22  1  0     0  0
  6 20  1  0     0  0
  7 11  1  0     0  0
  7 12  1  0     0  0
  7 23  1  0     0  0
  8 10  1  0     0  0
  8 11  2  0     0  0
  9 13  1  0     0  0
  9 21  1  0     0  0
 10 12  2  0     0  0
 11 24  1  0     0  0
 12 25  1  0     0  0
 13 15  2  0     0  0
 13 16  1  0     0  0
 14 17  2  0     0  0
 14 18  1  0     0  0
 14 23  1  0     0  0
 15 17  1  0     0  0
 16 18  2  0     0  0
 19 25  1  0     0  0
 20 26  1  0     0  0
 21 27  1  0     0  0
 24 28  1  0     0  0
 26 27  1  0     0  0
 28 29  1  0     0  0
 29 30  1  0     0  0
M  END
> <standard_type>
pIC50

> <# Confs.>
25

> <canonical_smiles>
ClC(N=C1CCCC)=C(CC(OC)=O)N1CC2=CC=C(NC(CCC(O)=O)=O)C=C2

> <standard_relation>
=

> <Publication_ID>
nan

> <predicted_activity_value>
5.045757490560675

> <actual_activity_value>
4.494850021680094

> <Compound>
25

> <standard_units>
nM

> hash
17748807188493933904

$$$$
25_
XXILIB    08252103443D 0   0.00000     0.00000

 30 31  0     1  0            999 V2000
   -3.5514    0.0514   -1.4977 Cl  0  0  0  0  0  1           0  0  0
   -0.8321   -2.3443   -2.6904 O   0  0  0  0  0  2           0  0  0
    5.3540  -10.0506    0.0486 O   0  0  0  0  0  2           0  0  0
    5.2152   -5.3760   -1.5138 O   0  0  0  0  0  2           0  0  0
    0.8429   -1.3972   -3.9566 O   0  0  0  0  0  2           0  0  0
    7.0128  -10.0450   -1.5004 O   0  0  0  0  0  2           0  0  0
    0.0000   -0.0000    0.0000 N   0  0  0  0  0  3           0  0  0
   -2.0876    0.0134    0.7607 N   0  0  0  0  0  3           0  0  0
    3.4974   -5.3411    0.0561 N   0  0  0  0  0  3           0  0  0
   -2.0963    0.0280   -0.6092 C   0  0  0  0  0  4           0  0  0
   -0.8178    0.0000    1.1140 C   0  0  0  0  0  4           0  0  0
   -0.8109    0.0232   -1.1184 C   0  0  0  0  0  4           0  0  0
    3.0219   -4.0161    0.0152 C   0  0  0  0  0  4           0  0  0
    1.9916   -1.3968    0.0000 C   0  0  0  0  0  4           0  0  0
    1.9635   -3.6690    0.8604 C   0  0  0  0  0  4           0  0  0
    3.5701   -3.0490   -0.8334 C   0  0  0  0  0  4           0  0  0
    1.4534   -2.3688    0.8531 C   0  0  0  0  0  4           0  0  0
    3.0595   -1.7478   -0.8361 C   0  0  0  0  0  4           0  0  0
   -0.1671   -1.3775   -3.0381 C   0  0  0  0  0  4           0  0  0
    6.0262   -9.4524   -0.7826 C   0  0  0  0  0  4           0  0  0
    4.5183   -5.9320   -0.6670 C   0  0  0  0  0  4           0  0  0
    1.1172   -2.6752   -4.5397 C   0  0  0  0  0  4           0  0  0
    1.4502   -0.0000   -0.0000 C   0  0  0  0  0  4           0  0  0
   -0.3354   -0.0151    2.5200 C   0  0  0  0  0  4           0  0  0
   -0.3220    0.0302   -2.5203 C   0  0  0  0  0  4           0  0  0
    5.8358   -8.0018   -1.1299 C   0  0  0  0  0  4           0  0  0
    4.7094   -7.3878   -0.3185 C   0  0  0  0  0  4           0  0  0
   -1.0807    0.9837    3.4002 C   0  0  0  0  0  4           0  0  0
   -0.9343    2.4239    2.9155 C   0  0  0  0  0  4           0  0  0
   -1.6764    3.4226    3.7913 C   0  0  0  0  0  4           0  0  0
  1 10  1  0     0  0
  2 19  2  0     0  0
  3 20  2  0     0  0
  4 21  2  0     0  0
  5 19  1  0     0  0
  5 22  1  0     0  0
  6 20  1  0     0  0
  7 11  1  0     0  0
  7 12  1  0     0  0
  7 23  1  0     0  0
  8 10  1  0     0  0
  8 11  2  0     0  0
  9 13  1  0     0  0
  9 21  1  0     0  0
 10 12  2  0     0  0
 11 24  1  0     0  0
 12 25  1  0     0  0
 13 15  2  0     0  0
 13 16  1  0     0  0
 14 17  2  0     0  0
 14 18  1  0     0  0
 14 23  1  0     0  0
 15 17  1  0     0  0
 16 18  2  0     0  0
 19 25  1  0     0  0
 20 26  1  0     0  0
 21 27  1  0     0  0
 24 28  1  0     0  0
 26 27  1  0     0  0
 28 29  1  0     0  0
 29 30  1  0     0  0
M  END
> <standard_type>
pIC50

> <# Confs.>
25

> <canonical_smiles>
ClC(N=C1CCCC)=C(CC(OC)=O)N1CC2=CC=C(NC(CCC(O)=O)=O)C=C2

> <standard_relation>
=

> <Publication_ID>
nan

> <predicted_activity_value>
5.045757490560675

> <actual_activity_value>
4.494850021680094

> <Compound>
25

> <standard_units>
nM

> hash
17748807188493933904

$$$$
25_
XXILIB    08252103443D 0   0.00000     0.00000

 30 31  0     1  0            999 V2000
   -3.5514    0.0514   -1.4977 Cl  0  0  0  0  0  1           0  0  0
    0.1058   -2.3614   -2.3634 O   0  0  0  0  0  2           0  0  0
    5.3095   10.0679    0.0289 O   0  0  0  0  0  2           0  0  0
    3.7178    5.9563   -2.1790 O   0  0  0  0  0  2           0  0  0
   -0.3764   -1.3729   -4.3873 O   0  0  0  0  0  2           0  0  0
    5.5244   10.6219   -2.1616 O   0  0  0  0  0  2           0  0  0
    0.0000   -0.0000    0.0000 N   0  0  0  0  0  3           0  0  0
   -2.0876    0.0134    0.7607 N   0  0  0  0  0  3           0  0  0
    3.4944    5.3423    0.0548 N   0  0  0  0  0  3           0  0  0
   -2.0963    0.0280   -0.6092 C   0  0  0  0  0  4           0  0  0
   -0.8178    0.0000    1.1140 C   0  0  0  0  0  4           0  0  0
   -0.8109    0.0232   -1.1184 C   0  0  0  0  0  4           0  0  0
    2.9894    4.0287    0.0008 C   0  0  0  0  0  4           0  0  0
    1.9916    1.3968    0.0000 C   0  0  0  0  0  4           0  0  0
    2.7450    3.3661    1.2075 C   0  0  0  0  0  4           0  0  0
    2.7272    3.3757   -1.2078 C   0  0  0  0  0  4           0  0  0
    2.2489    2.0605    1.2064 C   0  0  0  0  0  4           0  0  0
    2.2277    2.0701   -1.2056 C   0  0  0  0  0  4           0  0  0
   -0.1671   -1.3775   -3.0381 C   0  0  0  0  0  4           0  0  0
    5.1880    9.7772   -1.1550 C   0  0  0  0  0  4           0  0  0
    3.8168    6.2039   -0.9787 C   0  0  0  0  0  4           0  0  0
   -0.2576   -2.6458   -5.0310 C   0  0  0  0  0  4           0  0  0
    1.4502   -0.0000   -0.0000 C   0  0  0  0  0  4           0  0  0
   -0.3354   -0.0151    2.5200 C   0  0  0  0  0  4           0  0  0
   -0.3220    0.0302   -2.5203 C   0  0  0  0  0  4           0  0  0
    4.6747    8.4518   -1.6456 C   0  0  0  0  0  4           0  0  0
    4.3319    7.5342   -0.4862 C   0  0  0  0  0  4           0  0  0
   -1.1006   -1.0116    3.3856 C   0  0  0  0  0  4           0  0  0
   -0.9829   -2.4471    2.8799 C   0  0  0  0  0  4           0  0  0
   -1.7449   -3.4436    3.7410 C   0  0  0  0  0  4           0  0  0
  1 10  1  0     0  0
  2 19  2  0     0  0
  3 20  2  0     0  0
  4 21  2  0     0  0
  5 19  1  0     0  0
  5 22  1  0     0  0
  6 20  1  0     0  0
  7 11  1  0     0  0
  7 12  1  0     0  0
  7 23  1  0     0  0
  8 10  1  0     0  0
  8 11  2  0     0  0
  9 13  1  0     0  0
  9 21  1  0     0  0
 10 12  2  0     0  0
 11 24  1  0     0  0
 12 25  1  0     0  0
 13 15  2  0     0  0
 13 16  1  0     0  0
 14 17  2  0     0  0
 14 18  1  0     0  0
 14 23  1  0     0  0
 15 17  1  0     0  0
 16 18  2  0     0  0
 19 25  1  0     0  0
 20 26  1  0     0  0
 21 27  1  0     0  0
 24 28  1  0     0  0
 26 27  1  0     0  0
 28 29  1  0     0  0
 29 30  1  0     0  0
M  END
> <standard_type>
pIC50

> <# Confs.>
25

> <canonical_smiles>
ClC(N=C1CCCC)=C(CC(OC)=O)N1CC2=CC=C(NC(CCC(O)=O)=O)C=C2

> <standard_relation>
=

> <Publication_ID>
nan

> <predicted_activity_value>
5.045757490560675

> <actual_activity_value>
4.494850021680094

> <Compound>
25

> <standard_units>
nM

> hash
17748807188493933904

$$$$
16_
XXILIB    08252103443D 0   0.00000     0.00000

 35 37  0     1  0            999 V2000
    5.0043    1.4905    0.0959 Cl  0  0  0  0  0  1           0  0  0
   -3.7809   -0.4791   11.2994 F   0  0  0  0  0  1           0  0  0
   -1.0747   -0.6229   11.0132 F   0  0  0  0  0  1           0  0  0
   -5.3884   -0.5653    9.1107 F   0  0  0  0  0  1           0  0  0
    0.0341   -0.8521    8.5579 F   0  0  0  0  0  1           0  0  0
   -2.0636   -0.0150    5.2704 O   0  0  0  0  0  2           0  0  0
   -5.2087    0.0781    6.2389 O   0  0  0  0  0  2           0  0  0
    1.6652    2.9245   -1.3110 O   0  0  0  0  0  2           0  0  0
   -4.2335   -1.9443    5.8448 O   0  0  0  0  0  2           0  0  0
    1.4523   -0.0000   -0.0000 N   0  0  0  0  0  3           0  0  0
    3.5375   -0.7648    0.0278 N   0  0  0  0  0  3           0  0  0
    3.5487    0.6053    0.0496 C   0  0  0  0  0  4           0  0  0
   -3.2409   -0.5820   10.0782 C   0  0  0  0  0  4           0  0  0
   -1.8647   -0.6547    9.9318 C   0  0  0  0  0  4           0  0  0
   -4.0576   -0.6233    8.9583 C   0  0  0  0  0  4           0  0  0
   -1.3007   -0.7680    8.6642 C   0  0  0  0  0  4           0  0  0
   -1.5834   -0.0306    3.9912 C   0  0  0  0  0  4           0  0  0
    2.2670   -1.1150    0.0000 C   0  0  0  0  0  4           0  0  0
    2.2644    1.1161    0.0329 C   0  0  0  0  0  4           0  0  0
   -3.4928   -0.7282    7.6842 C   0  0  0  0  0  4           0  0  0
   -2.0993   -0.8005    7.5121 C   0  0  0  0  0  4           0  0  0
   -0.5423    0.0000    1.3965 C   0  0  0  0  0  4           0  0  0
   -2.1117    0.8486    3.0467 C   0  0  0  0  0  4           0  0  0
   -0.5295   -0.8815    3.6613 C   0  0  0  0  0  4           0  0  0
   -1.5971    0.8553    1.7498 C   0  0  0  0  0  4           0  0  0
   -0.0172   -0.8706    2.3634 C   0  0  0  0  0  4           0  0  0
   -4.4063   -0.7923    6.5304 C   0  0  0  0  0  4           0  0  0
   -1.4610   -0.9500    6.1625 C   0  0  0  0  0  4           0  0  0
    1.7758    2.5138    0.0457 C   0  0  0  0  0  4           0  0  0
    1.1999    4.2639   -1.4158 C   0  0  0  0  0  4           0  0  0
   -0.0000    0.0000    0.0000 C   0  0  0  0  0  4           0  0  0
    1.7769   -2.5198   -0.0285 C   0  0  0  0  0  4           0  0  0
    2.5449   -3.3883   -1.0244 C   0  0  0  0  0  4           0  0  0
    2.4661   -2.9061   -2.4734 C   0  0  0  0  0  4           0  0  0
    3.2415   -3.7940   -3.4353 C   0  0  0  0  0  4           0  0  0
  1 12  1  0     0  0
  2 13  1  0     0  0
  3 14  1  0     0  0
  4 15  1  0     0  0
  5 16  1  0     0  0
  6 17  1  0     0  0
  6 28  1  0     0  0
  7 27  2  0     0  0
  8 29  1  0     0  0
  8 30  1  0     0  0
  9 27  1  0     0  0
 10 18  1  0     0  0
 10 19  1  0     0  0
 10 31  1  0     0  0
 11 12  1  0     0  0
 11 18  2  0     0  0
 12 19  2  0     0  0
 13 14  2  0     0  0
 13 15  1  0     0  0
 14 16  1  0     0  0
 15 20  2  0     0  0
 16 21  2  0     0  0
 17 23  2  0     0  0
 17 24  1  0     0  0
 18 32  1  0     0  0
 19 29  1  0     0  0
 20 21  1  0     0  0
 20 27  1  0     0  0
 21 28  1  0     0  0
 22 25  2  0     0  0
 22 26  1  0     0  0
 22 31  1  0     0  0
 23 25  1  0     0  0
 24 26  2  0     0  0
 32 33  1  0     0  0
 33 34  1  0     0  0
 34 35  1  0     0  0
M  END
> <standard_type>
pIC50

> <# Confs.>
25

> <canonical_smiles>
ClC(N=C1CCCC)=C(COC)N1CC2=CC=C(OCC3=C(F)C(F)=C(F)C(F)=C3C(O)=O)C=C2

> <standard_relation>
=

> <Publication_ID>
nan

> <predicted_activity_value>
5.552841968657781

> <actual_activity_value>
5.920818753952375

> <Compound>
16

> <standard_units>
nM

> hash
2111710999732551678

$$$$
16_
XXILIB    08252103443D 0   0.00000     0.00000

 35 37  0     1  0            999 V2000
    5.0043   -1.4905   -0.0959 Cl  0  0  0  0  0  1           0  0  0
   -4.3656    0.7390   11.0723 F   0  0  0  0  0  1           0  0  0
   -5.4141    2.5511    9.3281 F   0  0  0  0  0  1           0  0  0
   -2.2709   -0.8200   10.3213 F   0  0  0  0  0  1           0  0  0
   -4.3847    2.8156    6.8419 F   0  0  0  0  0  1           0  0  0
   -2.0287   -0.0005    5.2840 O   0  0  0  0  0  2           0  0  0
   -1.1276   -1.8916    7.8238 O   0  0  0  0  0  2           0  0  0
    1.6652   -2.9245    1.3110 O   0  0  0  0  0  2           0  0  0
   -0.0389    0.0804    7.4737 O   0  0  0  0  0  2           0  0  0
    1.4523   -0.0000    0.0000 N   0  0  0  0  0  3           0  0  0
    3.5375    0.7648   -0.0278 N   0  0  0  0  0  3           0  0  0
    3.5487   -0.6053   -0.0496 C   0  0  0  0  0  4           0  0  0
   -3.8554    0.8550    9.8396 C   0  0  0  0  0  4           0  0  0
   -4.3883    1.7761    8.9518 C   0  0  0  0  0  4           0  0  0
   -2.7882    0.0592    9.4512 C   0  0  0  0  0  4           0  0  0
   -3.8561    1.9035    7.6718 C   0  0  0  0  0  4           0  0  0
   -1.5135   -0.0005    4.0183 C   0  0  0  0  0  4           0  0  0
    2.2670    1.1150    0.0000 C   0  0  0  0  0  4           0  0  0
    2.2644   -1.1161   -0.0329 C   0  0  0  0  0  4           0  0  0
   -2.2580    0.1796    8.1637 C   0  0  0  0  0  4           0  0  0
   -2.7850    1.1051    7.2458 C   0  0  0  0  0  4           0  0  0
   -0.5423    0.0000    1.3965 C   0  0  0  0  0  4           0  0  0
   -1.2936   -1.2121    3.3644 C   0  0  0  0  0  4           0  0  0
   -1.2721    1.2115    3.3729 C   0  0  0  0  0  4           0  0  0
   -0.7997   -1.2096    2.0594 C   0  0  0  0  0  4           0  0  0
   -0.7793    1.2092    2.0675 C   0  0  0  0  0  4           0  0  0
   -1.1096   -0.6725    7.8106 C   0  0  0  0  0  4           0  0  0
   -2.2175    1.2861    5.8687 C   0  0  0  0  0  4           0  0  0
    1.7758   -2.5138   -0.0457 C   0  0  0  0  0  4           0  0  0
    1.1999   -4.2639    1.4158 C   0  0  0  0  0  4           0  0  0
    0.0000   -0.0000    0.0000 C   0  0  0  0  0  4           0  0  0
    1.7769    2.5198    0.0285 C   0  0  0  0  0  4           0  0  0
    2.5075    3.4157   -0.9715 C   0  0  0  0  0  4           0  0  0
    2.3741    2.9733   -2.4291 C   0  0  0  0  0  4           0  0  0
    3.1133    3.8876   -3.3947 C   0  0  0  0  0  4           0  0  0
  1 12  1  0     0  0
  2 13  1  0     0  0
  3 14  1  0     0  0
  4 15  1  0     0  0
  5 16  1  0     0  0
  6 17  1  0     0  0
  6 28  1  0     0  0
  7 27  2  0     0  0
  8 29  1  0     0  0
  8 30  1  0     0  0
  9 27  1  0     0  0
 10 18  1  0     0  0
 10 19  1  0     0  0
 10 31  1  0     0  0
 11 12  1  0     0  0
 11 18  2  0     0  0
 12 19  2  0     0  0
 13 14  2  0     0  0
 13 15  1  0     0  0
 14 16  1  0     0  0
 15 20  2  0     0  0
 16 21  2  0     0  0
 17 23  2  0     0  0
 17 24  1  0     0  0
 18 32  1  0     0  0
 19 29  1  0     0  0
 20 21  1  0     0  0
 20 27  1  0     0  0
 21 28  1  0     0  0
 22 25  2  0     0  0
 22 26  1  0     0  0
 22 31  1  0     0  0
 23 25  1  0     0  0
 24 26  2  0     0  0
 32 33  1  0     0  0
 33 34  1  0     0  0
 34 35  1  0     0  0
M  END
> <standard_type>
pIC50

> <# Confs.>
25

> <canonical_smiles>
ClC(N=C1CCCC)=C(COC)N1CC2=CC=C(OCC3=C(F)C(F)=C(F)C(F)=C3C(O)=O)C=C2

> <standard_relation>
=

> <Publication_ID>
nan

> <predicted_activity_value>
5.552841968657781

> <actual_activity_value>
5.920818753952375

> <Compound>
16

> <standard_units>
nM

> hash
2111710999732551678

$$$$
16_
XXILIB    08252103443D 0   0.00000     0.00000

 35 37  0     1  0            999 V2000
    5.0043    1.4905    0.0959 Cl  0  0  0  0  0  1           0  0  0
   -3.7809   -0.4791   11.2994 F   0  0  0  0  0  1           0  0  0
   -1.0747   -0.6229   11.0132 F   0  0  0  0  0  1           0  0  0
   -5.3884   -0.5653    9.1107 F   0  0  0  0  0  1           0  0  0
    0.0341   -0.8521    8.5579 F   0  0  0  0  0  1           0  0  0
   -2.0636   -0.0150    5.2704 O   0  0  0  0  0  2           0  0  0
   -5.2087    0.0781    6.2389 O   0  0  0  0  0  2           0  0  0
    1.6652    2.9245   -1.3110 O   0  0  0  0  0  2           0  0  0
   -4.2335   -1.9443    5.8448 O   0  0  0  0  0  2           0  0  0
    1.4523   -0.0000   -0.0000 N   0  0  0  0  0  3           0  0  0
    3.5375   -0.7648    0.0278 N   0  0  0  0  0  3           0  0  0
    3.5487    0.6053    0.0496 C   0  0  0  0  0  4           0  0  0
   -3.2409   -0.5820   10.0782 C   0  0  0  0  0  4           0  0  0
   -1.8647   -0.6547    9.9318 C   0  0  0  0  0  4           0  0  0
   -4.0576   -0.6233    8.9583 C   0  0  0  0  0  4           0  0  0
   -1.3007   -0.7680    8.6642 C   0  0  0  0  0  4           0  0  0
   -1.5834   -0.0306    3.9912 C   0  0  0  0  0  4           0  0  0
    2.2670   -1.1150    0.0000 C   0  0  0  0  0  4           0  0  0
    2.2644    1.1161    0.0329 C   0  0  0  0  0  4           0  0  0
   -3.4928   -0.7282    7.6842 C   0  0  0  0  0  4           0  0  0
   -2.0993   -0.8005    7.5121 C   0  0  0  0  0  4           0  0  0
   -0.5423    0.0000    1.3965 C   0  0  0  0  0  4           0  0  0
   -2.1117    0.8486    3.0467 C   0  0  0  0  0  4           0  0  0
   -0.5295   -0.8815    3.6613 C   0  0  0  0  0  4           0  0  0
   -1.5971    0.8553    1.7498 C   0  0  0  0  0  4           0  0  0
   -0.0172   -0.8706    2.3634 C   0  0  0  0  0  4           0  0  0
   -4.4063   -0.7923    6.5304 C   0  0  0  0  0  4           0  0  0
   -1.4610   -0.9500    6.1625 C   0  0  0  0  0  4           0  0  0
    1.7758    2.5138    0.0457 C   0  0  0  0  0  4           0  0  0
    1.1999    4.2639   -1.4158 C   0  0  0  0  0  4           0  0  0
   -0.0000    0.0000    0.0000 C   0  0  0  0  0  4           0  0  0
    1.7769   -2.5198   -0.0285 C   0  0  0  0  0  4           0  0  0
    2.5075   -3.4157    0.9715 C   0  0  0  0  0  4           0  0  0
    2.0356   -4.8703    0.9768 C   0  0  0  0  0  4           0  0  0
    2.7844   -5.7312    1.9832 C   0  0  0  0  0  4           0  0  0
  1 12  1  0     0  0
  2 13  1  0     0  0
  3 14  1  0     0  0
  4 15  1  0     0  0
  5 16  1  0     0  0
  6 17  1  0     0  0
  6 28  1  0     0  0
  7 27  2  0     0  0
  8 29  1  0     0  0
  8 30  1  0     0  0
  9 27  1  0     0  0
 10 18  1  0     0  0
 10 19  1  0     0  0
 10 31  1  0     0  0
 11 12  1  0     0  0
 11 18  2  0     0  0
 12 19  2  0     0  0
 13 14  2  0     0  0
 13 15  1  0     0  0
 14 16  1  0     0  0
 15 20  2  0     0  0
 16 21  2  0     0  0
 17 23  2  0     0  0
 17 24  1  0     0  0
 18 32  1  0     0  0
 19 29  1  0     0  0
 20 21  1  0     0  0
 20 27  1  0     0  0
 21 28  1  0     0  0
 22 25  2  0     0  0
 22 26  1  0     0  0
 22 31  1  0     0  0
 23 25  1  0     0  0
 24 26  2  0     0  0
 32 33  1  0     0  0
 33 34  1  0     0  0
 34 35  1  0     0  0
M  END
> <standard_type>
pIC50

> <# Confs.>
25

> <canonical_smiles>
ClC(N=C1CCCC)=C(COC)N1CC2=CC=C(OCC3=C(F)C(F)=C(F)C(F)=C3C(O)=O)C=C2

> <standard_relation>
=

> <Publication_ID>
nan

> <predicted_activity_value>
5.552841968657781

> <actual_activity_value>
5.920818753952375

> <Compound>
16

> <standard_units>
nM

> hash
2111710999732551678

$$$$
16_
XXILIB    08252103443D 0   0.00000     0.00000

 35 37  0     1  0            999 V2000
    5.0043    1.4905    0.0959 Cl  0  0  0  0  0  1           0  0  0
   -3.7809   -0.4791   11.2994 F   0  0  0  0  0  1           0  0  0
   -1.0747   -0.6229   11.0132 F   0  0  0  0  0  1           0  0  0
   -5.3884   -0.5653    9.1107 F   0  0  0  0  0  1           0  0  0
    0.0341   -0.8521    8.5579 F   0  0  0  0  0  1           0  0  0
   -2.0636   -0.0150    5.2704 O   0  0  0  0  0  2           0  0  0
   -5.2087    0.0781    6.2389 O   0  0  0  0  0  2           0  0  0
    1.6652    2.9245   -1.3110 O   0  0  0  0  0  2           0  0  0
   -4.2335   -1.9443    5.8448 O   0  0  0  0  0  2           0  0  0
    1.4523   -0.0000   -0.0000 N   0  0  0  0  0  3           0  0  0
    3.5375   -0.7648    0.0278 N   0  0  0  0  0  3           0  0  0
    3.5487    0.6053    0.0496 C   0  0  0  0  0  4           0  0  0
   -3.2409   -0.5820   10.0782 C   0  0  0  0  0  4           0  0  0
   -1.8647   -0.6547    9.9318 C   0  0  0  0  0  4           0  0  0
   -4.0576   -0.6233    8.9583 C   0  0  0  0  0  4           0  0  0
   -1.3007   -0.7680    8.6642 C   0  0  0  0  0  4           0  0  0
   -1.5834   -0.0306    3.9912 C   0  0  0  0  0  4           0  0  0
    2.2670   -1.1150    0.0000 C   0  0  0  0  0  4           0  0  0
    2.2644    1.1161    0.0329 C   0  0  0  0  0  4           0  0  0
   -3.4928   -0.7282    7.6842 C   0  0  0  0  0  4           0  0  0
   -2.0993   -0.8005    7.5121 C   0  0  0  0  0  4           0  0  0
   -0.5423    0.0000    1.3965 C   0  0  0  0  0  4           0  0  0
   -2.1117    0.8486    3.0467 C   0  0  0  0  0  4           0  0  0
   -0.5295   -0.8815    3.6613 C   0  0  0  0  0  4           0  0  0
   -1.5971    0.8553    1.7498 C   0  0  0  0  0  4           0  0  0
   -0.0172   -0.8706    2.3634 C   0  0  0  0  0  4           0  0  0
   -4.4063   -0.7923    6.5304 C   0  0  0  0  0  4           0  0  0
   -1.4610   -0.9500    6.1625 C   0  0  0  0  0  4           0  0  0
    1.7758    2.5138    0.0457 C   0  0  0  0  0  4           0  0  0
    1.1999    4.2639   -1.4158 C   0  0  0  0  0  4           0  0  0
   -0.0000    0.0000    0.0000 C   0  0  0  0  0  4           0  0  0
    1.7769   -2.5198   -0.0285 C   0  0  0  0  0  4           0  0  0
    2.5449   -3.3883   -1.0244 C   0  0  0  0  0  4           0  0  0
    2.0744   -4.8419   -1.0874 C   0  0  0  0  0  4           0  0  0
    2.8608   -5.6753   -2.0882 C   0  0  0  0  0  4           0  0  0
  1 12  1  0     0  0
  2 13  1  0     0  0
  3 14  1  0     0  0
  4 15  1  0     0  0
  5 16  1  0     0  0
  6 17  1  0     0  0
  6 28  1  0     0  0
  7 27  2  0     0  0
  8 29  1  0     0  0
  8 30  1  0     0  0
  9 27  1  0     0  0
 10 18  1  0     0  0
 10 19  1  0     0  0
 10 31  1  0     0  0
 11 12  1  0     0  0
 11 18  2  0     0  0
 12 19  2  0     0  0
 13 14  2  0     0  0
 13 15  1  0     0  0
 14 16  1  0     0  0
 15 20  2  0     0  0
 16 21  2  0     0  0
 17 23  2  0     0  0
 17 24  1  0     0  0
 18 32  1  0     0  0
 19 29  1  0     0  0
 20 21  1  0     0  0
 20 27  1  0     0  0
 21 28  1  0     0  0
 22 25  2  0     0  0
 22 26  1  0     0  0
 22 31  1  0     0  0
 23 25  1  0     0  0
 24 26  2  0     0  0
 32 33  1  0     0  0
 33 34  1  0     0  0
 34 35  1  0     0  0
M  END
> <standard_type>
pIC50

> <# Confs.>
25

> <canonical_smiles>
ClC(N=C1CCCC)=C(COC)N1CC2=CC=C(OCC3=C(F)C(F)=C(F)C(F)=C3C(O)=O)C=C2

> <standard_relation>
=

> <Publication_ID>
nan

> <predicted_activity_value>
5.552841968657781

> <actual_activity_value>
5.920818753952375

> <Compound>
16

> <standard_units>
nM

> hash
2111710999732551678

$$$$
16_
XXILIB    08252103443D 0   0.00000     0.00000

 35 37  0     1  0            999 V2000
    5.0043   -1.4905   -0.0959 Cl  0  0  0  0  0  1           0  0  0
   -4.3656    0.7390   11.0723 F   0  0  0  0  0  1           0  0  0
   -5.4141    2.5511    9.3281 F   0  0  0  0  0  1           0  0  0
   -2.2709   -0.8200   10.3213 F   0  0  0  0  0  1           0  0  0
   -4.3847    2.8156    6.8419 F   0  0  0  0  0  1           0  0  0
   -2.0287   -0.0005    5.2840 O   0  0  0  0  0  2           0  0  0
   -1.1276   -1.8916    7.8238 O   0  0  0  0  0  2           0  0  0
    1.6652   -2.9245    1.3110 O   0  0  0  0  0  2           0  0  0
   -0.0389    0.0804    7.4737 O   0  0  0  0  0  2           0  0  0
    1.4523   -0.0000    0.0000 N   0  0  0  0  0  3           0  0  0
    3.5375    0.7648   -0.0278 N   0  0  0  0  0  3           0  0  0
    3.5487   -0.6053   -0.0496 C   0  0  0  0  0  4           0  0  0
   -3.8554    0.8550    9.8396 C   0  0  0  0  0  4           0  0  0
   -4.3883    1.7761    8.9518 C   0  0  0  0  0  4           0  0  0
   -2.7882    0.0592    9.4512 C   0  0  0  0  0  4           0  0  0
   -3.8561    1.9035    7.6718 C   0  0  0  0  0  4           0  0  0
   -1.5135   -0.0005    4.0183 C   0  0  0  0  0  4           0  0  0
    2.2670    1.1150    0.0000 C   0  0  0  0  0  4           0  0  0
    2.2644   -1.1161   -0.0329 C   0  0  0  0  0  4           0  0  0
   -2.2580    0.1796    8.1637 C   0  0  0  0  0  4           0  0  0
   -2.7850    1.1051    7.2458 C   0  0  0  0  0  4           0  0  0
   -0.5423    0.0000    1.3965 C   0  0  0  0  0  4           0  0  0
   -1.2936   -1.2121    3.3644 C   0  0  0  0  0  4           0  0  0
   -1.2721    1.2115    3.3729 C   0  0  0  0  0  4           0  0  0
   -0.7997   -1.2096    2.0594 C   0  0  0  0  0  4           0  0  0
   -0.7793    1.2092    2.0675 C   0  0  0  0  0  4           0  0  0
   -1.1096   -0.6725    7.8106 C   0  0  0  0  0  4           0  0  0
   -2.2175    1.2861    5.8687 C   0  0  0  0  0  4           0  0  0
    1.7758   -2.5138   -0.0457 C   0  0  0  0  0  4           0  0  0
    1.1999   -4.2639    1.4158 C   0  0  0  0  0  4           0  0  0
    0.0000   -0.0000    0.0000 C   0  0  0  0  0  4           0  0  0
    1.7769    2.5198    0.0285 C   0  0  0  0  0  4           0  0  0
    2.5075    3.4157   -0.9715 C   0  0  0  0  0  4           0  0  0
    2.0356    4.8703   -0.9768 C   0  0  0  0  0  4           0  0  0
    2.7844    5.7312   -1.9832 C   0  0  0  0  0  4           0  0  0
  1 12  1  0     0  0
  2 13  1  0     0  0
  3 14  1  0     0  0
  4 15  1  0     0  0
  5 16  1  0     0  0
  6 17  1  0     0  0
  6 28  1  0     0  0
  7 27  2  0     0  0
  8 29  1  0     0  0
  8 30  1  0     0  0
  9 27  1  0     0  0
 10 18  1  0     0  0
 10 19  1  0     0  0
 10 31  1  0     0  0
 11 12  1  0     0  0
 11 18  2  0     0  0
 12 19  2  0     0  0
 13 14  2  0     0  0
 13 15  1  0     0  0
 14 16  1  0     0  0
 15 20  2  0     0  0
 16 21  2  0     0  0
 17 23  2  0     0  0
 17 24  1  0     0  0
 18 32  1  0     0  0
 19 29  1  0     0  0
 20 21  1  0     0  0
 20 27  1  0     0  0
 21 28  1  0     0  0
 22 25  2  0     0  0
 22 26  1  0     0  0
 22 31  1  0     0  0
 23 25  1  0     0  0
 24 26  2  0     0  0
 32 33  1  0     0  0
 33 34  1  0     0  0
 34 35  1  0     0  0
M  END
> <standard_type>
pIC50

> <# Confs.>
25

> <canonical_smiles>
ClC(N=C1CCCC)=C(COC)N1CC2=CC=C(OCC3=C(F)C(F)=C(F)C(F)=C3C(O)=O)C=C2

> <standard_relation>
=

> <Publication_ID>
nan

> <predicted_activity_value>
5.552841968657781

> <actual_activity_value>
5.920818753952375

> <Compound>
16

> <standard_units>
nM

> hash
2111710999732551678

$$$$
16_
XXILIB    08252103443D 0   0.00000     0.00000

 35 37  0     1  0            999 V2000
    5.0043   -1.4905   -0.0959 Cl  0  0  0  0  0  1           0  0  0
   -4.7327    0.5922   10.9290 F   0  0  0  0  0  1           0  0  0
   -6.5813    0.7081    8.9302 F   0  0  0  0  0  1           0  0  0
   -2.0816    0.6443   10.3370 F   0  0  0  0  0  1           0  0  0
   -5.7993    0.8756    6.3474 F   0  0  0  0  0  1           0  0  0
   -2.0636   -0.0150    5.2704 O   0  0  0  0  0  2           0  0  0
   -0.3328   -0.0619    8.0706 O   0  0  0  0  0  2           0  0  0
    1.6141   -2.8817   -1.4095 O   0  0  0  0  0  2           0  0  0
   -0.7917    1.9437    7.0890 O   0  0  0  0  0  2           0  0  0
    1.4523    0.0000    0.0000 N   0  0  0  0  0  3           0  0  0
    3.5375    0.7648   -0.0278 N   0  0  0  0  0  3           0  0  0
    3.5487   -0.6053   -0.0496 C   0  0  0  0  0  4           0  0  0
   -4.3352    0.6645    9.6523 C   0  0  0  0  0  4           0  0  0
   -5.2747    0.7230    8.6351 C   0  0  0  0  0  4           0  0  0
   -2.9830    0.6884    9.3455 C   0  0  0  0  0  4           0  0  0
   -4.8646    0.8046    7.3074 C   0  0  0  0  0  4           0  0  0
   -1.5834   -0.0306    3.9912 C   0  0  0  0  0  4           0  0  0
    2.2670    1.1150    0.0000 C   0  0  0  0  0  4           0  0  0
    2.2644   -1.1161   -0.0329 C   0  0  0  0  0  4           0  0  0
   -2.5693    0.7614    8.0125 C   0  0  0  0  0  4           0  0  0
   -3.5050    0.8187    6.9647 C   0  0  0  0  0  4           0  0  0
   -0.5423   -0.0000    1.3965 C   0  0  0  0  0  4           0  0  0
   -2.1117    0.8486    3.0467 C   0  0  0  0  0  4           0  0  0
   -0.5295   -0.8815    3.6613 C   0  0  0  0  0  4           0  0  0
   -1.5971    0.8553    1.7498 C   0  0  0  0  0  4           0  0  0
   -0.0172   -0.8706    2.3634 C   0  0  0  0  0  4           0  0  0
   -1.1219    0.8081    7.7435 C   0  0  0  0  0  4           0  0  0
   -3.0967    0.9341    5.5255 C   0  0  0  0  0  4           0  0  0
    1.7758   -2.5138   -0.0457 C   0  0  0  0  0  4           0  0  0
    1.1443   -4.2173   -1.5388 C   0  0  0  0  0  4           0  0  0
    0.0000    0.0000    0.0000 C   0  0  0  0  0  4           0  0  0
    1.7769    2.5198    0.0285 C   0  0  0  0  0  4           0  0  0
    1.5574    3.0923   -1.3717 C   0  0  0  0  0  4           0  0  0
    1.0530    4.5358   -1.3907 C   0  0  0  0  0  4           0  0  0
    0.8463    5.0715   -2.7996 C   0  0  0  0  0  4           0  0  0
  1 12  1  0     0  0
  2 13  1  0     0  0
  3 14  1  0     0  0
  4 15  1  0     0  0
  5 16  1  0     0  0
  6 17  1  0     0  0
  6 28  1  0     0  0
  7 27  2  0     0  0
  8 29  1  0     0  0
  8 30  1  0     0  0
  9 27  1  0     0  0
 10 18  1  0     0  0
 10 19  1  0     0  0
 10 31  1  0     0  0
 11 12  1  0     0  0
 11 18  2  0     0  0
 12 19  2  0     0  0
 13 14  2  0     0  0
 13 15  1  0     0  0
 14 16  1  0     0  0
 15 20  2  0     0  0
 16 21  2  0     0  0
 17 23  2  0     0  0
 17 24  1  0     0  0
 18 32  1  0     0  0
 19 29  1  0     0  0
 20 21  1  0     0  0
 20 27  1  0     0  0
 21 28  1  0     0  0
 22 25  2  0     0  0
 22 26  1  0     0  0
 22 31  1  0     0  0
 23 25  1  0     0  0
 24 26  2  0     0  0
 32 33  1  0     0  0
 33 34  1  0     0  0
 34 35  1  0     0  0
M  END
> <standard_type>
pIC50

> <# Confs.>
25

> <canonical_smiles>
ClC(N=C1CCCC)=C(COC)N1CC2=CC=C(OCC3=C(F)C(F)=C(F)C(F)=C3C(O)=O)C=C2

> <standard_relation>
=

> <Publication_ID>
nan

> <predicted_activity_value>
5.552841968657781

> <actual_activity_value>
5.920818753952375

> <Compound>
16

> <standard_units>
nM

> hash
2111710999732551678

$$$$
16_
XXILIB    08252103443D 0   0.00000     0.00000

 35 37  0     1  0            999 V2000
    5.0043    1.4905    0.0959 Cl  0  0  0  0  0  1           0  0  0
   -3.9894   -0.3909   11.1910 F   0  0  0  0  0  1           0  0  0
   -4.9408   -2.1664    9.3557 F   0  0  0  0  0  1           0  0  0
   -1.8140    1.1308   10.6133 F   0  0  0  0  0  1           0  0  0
   -3.7347   -2.4307    6.9503 F   0  0  0  0  0  1           0  0  0
   -2.0636   -0.0150    5.2704 O   0  0  0  0  0  2           0  0  0
    0.6873    0.6785    8.4638 O   0  0  0  0  0  2           0  0  0
    1.6652    2.9245   -1.3110 O   0  0  0  0  0  2           0  0  0
   -0.8527    2.1303    7.6167 O   0  0  0  0  0  2           0  0  0
    1.4523   -0.0000   -0.0000 N   0  0  0  0  0  3           0  0  0
    3.5375   -0.7648    0.0278 N   0  0  0  0  0  3           0  0  0
    3.5487    0.6053    0.0496 C   0  0  0  0  0  4           0  0  0
   -3.3786   -0.5219   10.0064 C   0  0  0  0  0  4           0  0  0
   -3.8616   -1.4249    9.0727 C   0  0  0  0  0  4           0  0  0
   -2.2663    0.2507    9.7087 C   0  0  0  0  0  4           0  0  0
   -3.2327   -1.5589    7.8380 C   0  0  0  0  0  4           0  0  0
   -1.5834   -0.0306    3.9912 C   0  0  0  0  0  4           0  0  0
    2.2670   -1.1150    0.0000 C   0  0  0  0  0  4           0  0  0
    2.2644    1.1161    0.0329 C   0  0  0  0  0  4           0  0  0
   -1.6282    0.1114    8.4730 C   0  0  0  0  0  4           0  0  0
   -2.0993   -0.8005    7.5121 C   0  0  0  0  0  4           0  0  0
   -0.5423    0.0000    1.3965 C   0  0  0  0  0  4           0  0  0
   -2.1117    0.8486    3.0467 C   0  0  0  0  0  4           0  0  0
   -0.5295   -0.8815    3.6613 C   0  0  0  0  0  4           0  0  0
   -1.5971    0.8553    1.7498 C   0  0  0  0  0  4           0  0  0
   -0.0172   -0.8706    2.3634 C   0  0  0  0  0  4           0  0  0
   -0.4657    0.9732    8.1985 C   0  0  0  0  0  4           0  0  0
   -1.4610   -0.9500    6.1625 C   0  0  0  0  0  4           0  0  0
    1.7758    2.5138    0.0457 C   0  0  0  0  0  4           0  0  0
    1.1999    4.2639   -1.4158 C   0  0  0  0  0  4           0  0  0
   -0.0000    0.0000    0.0000 C   0  0  0  0  0  4           0  0  0
    1.7769   -2.5198   -0.0285 C   0  0  0  0  0  4           0  0  0
    2.5449   -3.3883   -1.0244 C   0  0  0  0  0  4           0  0  0
    2.4661   -2.9061   -2.4734 C   0  0  0  0  0  4           0  0  0
    3.2415   -3.7940   -3.4353 C   0  0  0  0  0  4           0  0  0
  1 12  1  0     0  0
  2 13  1  0     0  0
  3 14  1  0     0  0
  4 15  1  0     0  0
  5 16  1  0     0  0
  6 17  1  0     0  0
  6 28  1  0     0  0
  7 27  2  0     0  0
  8 29  1  0     0  0
  8 30  1  0     0  0
  9 27  1  0     0  0
 10 18  1  0     0  0
 10 19  1  0     0  0
 10 31  1  0     0  0
 11 12  1  0     0  0
 11 18  2  0     0  0
 12 19  2  0     0  0
 13 14  2  0     0  0
 13 15  1  0     0  0
 14 16  1  0     0  0
 15 20  2  0     0  0
 16 21  2  0     0  0
 17 23  2  0     0  0
 17 24  1  0     0  0
 18 32  1  0     0  0
 19 29  1  0     0  0
 20 21  1  0     0  0
 20 27  1  0     0  0
 21 28  1  0     0  0
 22 25  2  0     0  0
 22 26  1  0     0  0
 22 31  1  0     0  0
 23 25  1  0     0  0
 24 26  2  0     0  0
 32 33  1  0     0  0
 33 34  1  0     0  0
 34 35  1  0     0  0
M  END
> <standard_type>
pIC50

> <# Confs.>
25

> <canonical_smiles>
ClC(N=C1CCCC)=C(COC)N1CC2=CC=C(OCC3=C(F)C(F)=C(F)C(F)=C3C(O)=O)C=C2

> <standard_relation>
=

> <Publication_ID>
nan

> <predicted_activity_value>
5.552841968657781

> <actual_activity_value>
5.920818753952375

> <Compound>
16

> <standard_units>
nM

> hash
2111710999732551678

$$$$
16_
XXILIB    08252103443D 0   0.00000     0.00000

 35 37  0     1  0            999 V2000
    5.0043   -1.4905   -0.0959 Cl  0  0  0  0  0  1           0  0  0
   -3.7809   -0.4791   11.2994 F   0  0  0  0  0  1           0  0  0
   -1.0747   -0.6229   11.0132 F   0  0  0  0  0  1           0  0  0
   -5.3884   -0.5653    9.1107 F   0  0  0  0  0  1           0  0  0
    0.0341   -0.8521    8.5579 F   0  0  0  0  0  1           0  0  0
   -2.0636   -0.0150    5.2704 O   0  0  0  0  0  2           0  0  0
   -5.2087    0.0781    6.2389 O   0  0  0  0  0  2           0  0  0
    1.6141   -2.8817   -1.4095 O   0  0  0  0  0  2           0  0  0
   -4.2335   -1.9443    5.8448 O   0  0  0  0  0  2           0  0  0
    1.4523    0.0000    0.0000 N   0  0  0  0  0  3           0  0  0
    3.5375    0.7648   -0.0278 N   0  0  0  0  0  3           0  0  0
    3.5487   -0.6053   -0.0496 C   0  0  0  0  0  4           0  0  0
   -3.2409   -0.5820   10.0782 C   0  0  0  0  0  4           0  0  0
   -1.8647   -0.6547    9.9318 C   0  0  0  0  0  4           0  0  0
   -4.0576   -0.6233    8.9583 C   0  0  0  0  0  4           0  0  0
   -1.3007   -0.7680    8.6642 C   0  0  0  0  0  4           0  0  0
   -1.5834   -0.0306    3.9912 C   0  0  0  0  0  4           0  0  0
    2.2670    1.1150    0.0000 C   0  0  0  0  0  4           0  0  0
    2.2644   -1.1161   -0.0329 C   0  0  0  0  0  4           0  0  0
   -3.4928   -0.7282    7.6842 C   0  0  0  0  0  4           0  0  0
   -2.0993   -0.8005    7.5121 C   0  0  0  0  0  4           0  0  0
   -0.5423    0.0000    1.3965 C   0  0  0  0  0  4           0  0  0
   -2.1117    0.8486    3.0467 C   0  0  0  0  0  4           0  0  0
   -0.5295   -0.8815    3.6613 C   0  0  0  0  0  4           0  0  0
   -1.5971    0.8553    1.7498 C   0  0  0  0  0  4           0  0  0
   -0.0172   -0.8706    2.3634 C   0  0  0  0  0  4           0  0  0
   -4.4063   -0.7923    6.5304 C   0  0  0  0  0  4           0  0  0
   -1.4610   -0.9500    6.1625 C   0  0  0  0  0  4           0  0  0
    1.7758   -2.5138   -0.0457 C   0  0  0  0  0  4           0  0  0
    1.1443   -4.2173   -1.5388 C   0  0  0  0  0  4           0  0  0
   -0.0000    0.0000    0.0000 C   0  0  0  0  0  4           0  0  0
    1.7769    2.5198    0.0285 C   0  0  0  0  0  4           0  0  0
    1.5574    3.0923   -1.3717 C   0  0  0  0  0  4           0  0  0
    1.0530    4.5358   -1.3907 C   0  0  0  0  0  4           0  0  0
    0.8463    5.0715   -2.7996 C   0  0  0  0  0  4           0  0  0
  1 12  1  0     0  0
  2 13  1  0     0  0
  3 14  1  0     0  0
  4 15  1  0     0  0
  5 16  1  0     0  0
  6 17  1  0     0  0
  6 28  1  0     0  0
  7 27  2  0     0  0
  8 29  1  0     0  0
  8 30  1  0     0  0
  9 27  1  0     0  0
 10 18  1  0     0  0
 10 19  1  0     0  0
 10 31  1  0     0  0
 11 12  1  0     0  0
 11 18  2  0     0  0
 12 19  2  0     0  0
 13 14  2  0     0  0
 13 15  1  0     0  0
 14 16  1  0     0  0
 15 20  2  0     0  0
 16 21  2  0     0  0
 17 23  2  0     0  0
 17 24  1  0     0  0
 18 32  1  0     0  0
 19 29  1  0     0  0
 20 21  1  0     0  0
 20 27  1  0     0  0
 21 28  1  0     0  0
 22 25  2  0     0  0
 22 26  1  0     0  0
 22 31  1  0     0  0
 23 25  1  0     0  0
 24 26  2  0     0  0
 32 33  1  0     0  0
 33 34  1  0     0  0
 34 35  1  0     0  0
M  END
> <standard_type>
pIC50

> <# Confs.>
25

> <canonical_smiles>
ClC(N=C1CCCC)=C(COC)N1CC2=CC=C(OCC3=C(F)C(F)=C(F)C(F)=C3C(O)=O)C=C2

> <standard_relation>
=

> <Publication_ID>
nan

> <predicted_activity_value>
5.552841968657781

> <actual_activity_value>
5.920818753952375

> <Compound>
16

> <standard_units>
nM

> hash
2111710999732551678

$$$$
16_
XXILIB    08252103443D 0   0.00000     0.00000

 35 37  0     1  0            999 V2000
    5.0043   -1.4905   -0.0959 Cl  0  0  0  0  0  1           0  0  0
   -4.7327    0.5922   10.9290 F   0  0  0  0  0  1           0  0  0
   -6.5813    0.7081    8.9302 F   0  0  0  0  0  1           0  0  0
   -2.0816    0.6443   10.3370 F   0  0  0  0  0  1           0  0  0
   -5.7993    0.8756    6.3474 F   0  0  0  0  0  1           0  0  0
   -2.0636   -0.0150    5.2704 O   0  0  0  0  0  2           0  0  0
   -0.3328   -0.0619    8.0706 O   0  0  0  0  0  2           0  0  0
    1.6141   -2.8817   -1.4095 O   0  0  0  0  0  2           0  0  0
   -0.7917    1.9437    7.0890 O   0  0  0  0  0  2           0  0  0
    1.4523    0.0000    0.0000 N   0  0  0  0  0  3           0  0  0
    3.5375    0.7648   -0.0278 N   0  0  0  0  0  3           0  0  0
    3.5487   -0.6053   -0.0496 C   0  0  0  0  0  4           0  0  0
   -4.3352    0.6645    9.6523 C   0  0  0  0  0  4           0  0  0
   -5.2747    0.7230    8.6351 C   0  0  0  0  0  4           0  0  0
   -2.9830    0.6884    9.3455 C   0  0  0  0  0  4           0  0  0
   -4.8646    0.8046    7.3074 C   0  0  0  0  0  4           0  0  0
   -1.5834   -0.0306    3.9912 C   0  0  0  0  0  4           0  0  0
    2.2670    1.1150    0.0000 C   0  0  0  0  0  4           0  0  0
    2.2644   -1.1161   -0.0329 C   0  0  0  0  0  4           0  0  0
   -2.5693    0.7614    8.0125 C   0  0  0  0  0  4           0  0  0
   -3.5050    0.8187    6.9647 C   0  0  0  0  0  4           0  0  0
   -0.5423   -0.0000    1.3965 C   0  0  0  0  0  4           0  0  0
   -2.1117    0.8486    3.0467 C   0  0  0  0  0  4           0  0  0
   -0.5295   -0.8815    3.6613 C   0  0  0  0  0  4           0  0  0
   -1.5971    0.8553    1.7498 C   0  0  0  0  0  4           0  0  0
   -0.0172   -0.8706    2.3634 C   0  0  0  0  0  4           0  0  0
   -1.1219    0.8081    7.7435 C   0  0  0  0  0  4           0  0  0
   -3.0967    0.9341    5.5255 C   0  0  0  0  0  4           0  0  0
    1.7758   -2.5138   -0.0457 C   0  0  0  0  0  4           0  0  0
    1.1443   -4.2173   -1.5388 C   0  0  0  0  0  4           0  0  0
    0.0000    0.0000    0.0000 C   0  0  0  0  0  4           0  0  0
    1.7769    2.5198    0.0285 C   0  0  0  0  0  4           0  0  0
    1.6103    3.0536    1.4510 C   0  0  0  0  0  4           0  0  0
    1.1078    4.4958    1.5285 C   0  0  0  0  0  4           0  0  0
    0.9543    4.9925    2.9583 C   0  0  0  0  0  4           0  0  0
  1 12  1  0     0  0
  2 13  1  0     0  0
  3 14  1  0     0  0
  4 15  1  0     0  0
  5 16  1  0     0  0
  6 17  1  0     0  0
  6 28  1  0     0  0
  7 27  2  0     0  0
  8 29  1  0     0  0
  8 30  1  0     0  0
  9 27  1  0     0  0
 10 18  1  0     0  0
 10 19  1  0     0  0
 10 31  1  0     0  0
 11 12  1  0     0  0
 11 18  2  0     0  0
 12 19  2  0     0  0
 13 14  2  0     0  0
 13 15  1  0     0  0
 14 16  1  0     0  0
 15 20  2  0     0  0
 16 21  2  0     0  0
 17 23  2  0     0  0
 17 24  1  0     0  0
 18 32  1  0     0  0
 19 29  1  0     0  0
 20 21  1  0     0  0
 20 27  1  0     0  0
 21 28  1  0     0  0
 22 25  2  0     0  0
 22 26  1  0     0  0
 22 31  1  0     0  0
 23 25  1  0     0  0
 24 26  2  0     0  0
 32 33  1  0     0  0
 33 34  1  0     0  0
 34 35  1  0     0  0
M  END
> <standard_type>
pIC50

> <# Confs.>
25

> <canonical_smiles>
ClC(N=C1CCCC)=C(COC)N1CC2=CC=C(OCC3=C(F)C(F)=C(F)C(F)=C3C(O)=O)C=C2

> <standard_relation>
=

> <Publication_ID>
nan

> <predicted_activity_value>
5.552841968657781

> <actual_activity_value>
5.920818753952375

> <Compound>
16

> <standard_units>
nM

> hash
2111710999732551678

$$$$
16_
XXILIB    08252103443D 0   0.00000     0.00000

 35 37  0     1  0            999 V2000
    5.0043   -1.4905   -0.0959 Cl  0  0  0  0  0  1           0  0  0
   -4.5218   -0.6097   10.9921 F   0  0  0  0  0  1           0  0  0
   -5.6016   -2.4031    9.2477 F   0  0  0  0  0  1           0  0  0
   -2.3658    0.8731   10.2606 F   0  0  0  0  0  1           0  0  0
   -4.5429   -2.7242    6.7806 F   0  0  0  0  0  1           0  0  0
   -2.0287   -0.0005    5.2840 O   0  0  0  0  0  2           0  0  0
   -1.1857    1.8753    7.7390 O   0  0  0  0  0  2           0  0  0
    1.6652   -2.9245    1.3110 O   0  0  0  0  0  2           0  0  0
   -0.0849   -0.1053    7.4895 O   0  0  0  0  0  2           0  0  0
    1.4523   -0.0000    0.0000 N   0  0  0  0  0  3           0  0  0
    3.5375    0.7648   -0.0278 N   0  0  0  0  0  3           0  0  0
    3.5487   -0.6053   -0.0496 C   0  0  0  0  0  4           0  0  0
   -3.9837   -0.7688    9.7761 C   0  0  0  0  0  4           0  0  0
   -4.5320   -1.6810    8.8886 C   0  0  0  0  0  4           0  0  0
   -2.8814   -0.0162    9.3999 C   0  0  0  0  0  4           0  0  0
   -3.9788   -1.8442    7.6216 C   0  0  0  0  0  4           0  0  0
   -1.5135   -0.0005    4.0183 C   0  0  0  0  0  4           0  0  0
    2.2670    1.1150    0.0000 C   0  0  0  0  0  4           0  0  0
    2.2644   -1.1161   -0.0329 C   0  0  0  0  0  4           0  0  0
   -2.3193   -0.1848    8.1315 C   0  0  0  0  0  4           0  0  0
   -2.8574   -1.1065    7.2162 C   0  0  0  0  0  4           0  0  0
   -0.5423   -0.0000    1.3965 C   0  0  0  0  0  4           0  0  0
   -1.2936   -1.2121    3.3644 C   0  0  0  0  0  4           0  0  0
   -1.2721    1.2115    3.3729 C   0  0  0  0  0  4           0  0  0
   -0.7997   -1.2096    2.0594 C   0  0  0  0  0  4           0  0  0
   -0.7793    1.2092    2.0675 C   0  0  0  0  0  4           0  0  0
   -1.1645    0.6567    7.7738 C   0  0  0  0  0  4           0  0  0
   -2.3018   -1.2873    5.8342 C   0  0  0  0  0  4           0  0  0
    1.7758   -2.5138   -0.0457 C   0  0  0  0  0  4           0  0  0
    1.1999   -4.2639    1.4158 C   0  0  0  0  0  4           0  0  0
    0.0000    0.0000    0.0000 C   0  0  0  0  0  4           0  0  0
    1.7769    2.5198    0.0285 C   0  0  0  0  0  4           0  0  0
    2.5075    3.4157   -0.9715 C   0  0  0  0  0  4           0  0  0
    2.3741    2.9733   -2.4291 C   0  0  0  0  0  4           0  0  0
    3.1133    3.8876   -3.3947 C   0  0  0  0  0  4           0  0  0
  1 12  1  0     0  0
  2 13  1  0     0  0
  3 14  1  0     0  0
  4 15  1  0     0  0
  5 16  1  0     0  0
  6 17  1  0     0  0
  6 28  1  0     0  0
  7 27  2  0     0  0
  8 29  1  0     0  0
  8 30  1  0     0  0
  9 27  1  0     0  0
 10 18  1  0     0  0
 10 19  1  0     0  0
 10 31  1  0     0  0
 11 12  1  0     0  0
 11 18  2  0     0  0
 12 19  2  0     0  0
 13 14  2  0     0  0
 13 15  1  0     0  0
 14 16  1  0     0  0
 15 20  2  0     0  0
 16 21  2  0     0  0
 17 23  2  0     0  0
 17 24  1  0     0  0
 18 32  1  0     0  0
 19 29  1  0     0  0
 20 21  1  0     0  0
 20 27  1  0     0  0
 21 28  1  0     0  0
 22 25  2  0     0  0
 22 26  1  0     0  0
 22 31  1  0     0  0
 23 25  1  0     0  0
 24 26  2  0     0  0
 32 33  1  0     0  0
 33 34  1  0     0  0
 34 35  1  0     0  0
M  END
> <standard_type>
pIC50

> <# Confs.>
25

> <canonical_smiles>
ClC(N=C1CCCC)=C(COC)N1CC2=CC=C(OCC3=C(F)C(F)=C(F)C(F)=C3C(O)=O)C=C2

> <standard_relation>
=

> <Publication_ID>
nan

> <predicted_activity_value>
5.552841968657781

> <actual_activity_value>
5.920818753952375

> <Compound>
16

> <standard_units>
nM

> hash
2111710999732551678

$$$$
16_
XXILIB    08252103443D 0   0.00000     0.00000

 35 37  0     1  0            999 V2000
    5.0043    1.4905    0.0959 Cl  0  0  0  0  0  1           0  0  0
   -3.7435   -0.3823   11.3063 F   0  0  0  0  0  1           0  0  0
   -1.5814    1.1096   10.5817 F   0  0  0  0  0  1           0  0  0
   -4.8185   -2.1618    9.5571 F   0  0  0  0  0  1           0  0  0
   -0.4877    0.8354    8.1242 F   0  0  0  0  0  1           0  0  0
   -2.0636   -0.0150    5.2704 O   0  0  0  0  0  2           0  0  0
   -3.4685   -3.7204    6.9299 O   0  0  0  0  0  2           0  0  0
    1.6652    2.9245   -1.3110 O   0  0  0  0  0  2           0  0  0
   -4.8055   -1.9958    6.2704 O   0  0  0  0  0  2           0  0  0
    1.4523   -0.0000   -0.0000 N   0  0  0  0  0  3           0  0  0
    3.5375   -0.7648    0.0278 N   0  0  0  0  0  3           0  0  0
    3.5487    0.6053    0.0496 C   0  0  0  0  0  4           0  0  0
   -3.2156   -0.5180   10.0831 C   0  0  0  0  0  4           0  0  0
   -2.1162    0.2407    9.7137 C   0  0  0  0  0  4           0  0  0
   -3.7629   -1.4229    9.1862 C   0  0  0  0  0  4           0  0  0
   -1.5613    0.0974    8.4451 C   0  0  0  0  0  4           0  0  0
   -1.5834   -0.0306    3.9912 C   0  0  0  0  0  4           0  0  0
    2.2670   -1.1150    0.0000 C   0  0  0  0  0  4           0  0  0
    2.2644    1.1161    0.0329 C   0  0  0  0  0  4           0  0  0
   -3.2126   -1.5620    7.9091 C   0  0  0  0  0  4           0  0  0
   -2.0993   -0.8005    7.5121 C   0  0  0  0  0  4           0  0  0
   -0.5423    0.0000    1.3965 C   0  0  0  0  0  4           0  0  0
   -2.1117    0.8486    3.0467 C   0  0  0  0  0  4           0  0  0
   -0.5295   -0.8815    3.6613 C   0  0  0  0  0  4           0  0  0
   -1.5971    0.8553    1.7498 C   0  0  0  0  0  4           0  0  0
   -0.0172   -0.8706    2.3634 C   0  0  0  0  0  4           0  0  0
   -3.8173   -2.5544    7.0041 C   0  0  0  0  0  4           0  0  0
   -1.4610   -0.9500    6.1625 C   0  0  0  0  0  4           0  0  0
    1.7758    2.5138    0.0457 C   0  0  0  0  0  4           0  0  0
    1.1999    4.2639   -1.4158 C   0  0  0  0  0  4           0  0  0
   -0.0000    0.0000    0.0000 C   0  0  0  0  0  4           0  0  0
    1.7769   -2.5198   -0.0285 C   0  0  0  0  0  4           0  0  0
    2.5449   -3.3883   -1.0244 C   0  0  0  0  0  4           0  0  0
    2.4661   -2.9061   -2.4734 C   0  0  0  0  0  4           0  0  0
    3.2415   -3.7940   -3.4353 C   0  0  0  0  0  4           0  0  0
  1 12  1  0     0  0
  2 13  1  0     0  0
  3 14  1  0     0  0
  4 15  1  0     0  0
  5 16  1  0     0  0
  6 17  1  0     0  0
  6 28  1  0     0  0
  7 27  2  0     0  0
  8 29  1  0     0  0
  8 30  1  0     0  0
  9 27  1  0     0  0
 10 18  1  0     0  0
 10 19  1  0     0  0
 10 31  1  0     0  0
 11 12  1  0     0  0
 11 18  2  0     0  0
 12 19  2  0     0  0
 13 14  2  0     0  0
 13 15  1  0     0  0
 14 16  1  0     0  0
 15 20  2  0     0  0
 16 21  2  0     0  0
 17 23  2  0     0  0
 17 24  1  0     0  0
 18 32  1  0     0  0
 19 29  1  0     0  0
 20 21  1  0     0  0
 20 27  1  0     0  0
 21 28  1  0     0  0
 22 25  2  0     0  0
 22 26  1  0     0  0
 22 31  1  0     0  0
 23 25  1  0     0  0
 24 26  2  0     0  0
 32 33  1  0     0  0
 33 34  1  0     0  0
 34 35  1  0     0  0
M  END
> <standard_type>
pIC50

> <# Confs.>
25

> <canonical_smiles>
ClC(N=C1CCCC)=C(COC)N1CC2=CC=C(OCC3=C(F)C(F)=C(F)C(F)=C3C(O)=O)C=C2

> <standard_relation>
=

> <Publication_ID>
nan

> <predicted_activity_value>
5.552841968657781

> <actual_activity_value>
5.920818753952375

> <Compound>
16

> <standard_units>
nM

> hash
2111710999732551678

$$$$
16_
XXILIB    08252103443D 0   0.00000     0.00000

 35 37  0     1  0            999 V2000
    5.0043    1.4905    0.0959 Cl  0  0  0  0  0  1           0  0  0
   -3.9894   -0.3909   11.1910 F   0  0  0  0  0  1           0  0  0
   -4.9408   -2.1664    9.3557 F   0  0  0  0  0  1           0  0  0
   -1.8140    1.1308   10.6133 F   0  0  0  0  0  1           0  0  0
   -3.7347   -2.4307    6.9503 F   0  0  0  0  0  1           0  0  0
   -2.0636   -0.0150    5.2704 O   0  0  0  0  0  2           0  0  0
    0.6873    0.6785    8.4638 O   0  0  0  0  0  2           0  0  0
    1.6652    2.9245   -1.3110 O   0  0  0  0  0  2           0  0  0
   -0.8527    2.1303    7.6167 O   0  0  0  0  0  2           0  0  0
    1.4523   -0.0000   -0.0000 N   0  0  0  0  0  3           0  0  0
    3.5375   -0.7648    0.0278 N   0  0  0  0  0  3           0  0  0
    3.5487    0.6053    0.0496 C   0  0  0  0  0  4           0  0  0
   -3.3786   -0.5219   10.0064 C   0  0  0  0  0  4           0  0  0
   -3.8616   -1.4249    9.0727 C   0  0  0  0  0  4           0  0  0
   -2.2663    0.2507    9.7087 C   0  0  0  0  0  4           0  0  0
   -3.2327   -1.5589    7.8380 C   0  0  0  0  0  4           0  0  0
   -1.5834   -0.0306    3.9912 C   0  0  0  0  0  4           0  0  0
    2.2670   -1.1150    0.0000 C   0  0  0  0  0  4           0  0  0
    2.2644    1.1161    0.0329 C   0  0  0  0  0  4           0  0  0
   -1.6282    0.1114    8.4730 C   0  0  0  0  0  4           0  0  0
   -2.0993   -0.8005    7.5121 C   0  0  0  0  0  4           0  0  0
   -0.5423    0.0000    1.3965 C   0  0  0  0  0  4           0  0  0
   -2.1117    0.8486    3.0467 C   0  0  0  0  0  4           0  0  0
   -0.5295   -0.8815    3.6613 C   0  0  0  0  0  4           0  0  0
   -1.5971    0.8553    1.7498 C   0  0  0  0  0  4           0  0  0
   -0.0172   -0.8706    2.3634 C   0  0  0  0  0  4           0  0  0
   -0.4657    0.9732    8.1985 C   0  0  0  0  0  4           0  0  0
   -1.4610   -0.9500    6.1625 C   0  0  0  0  0  4           0  0  0
    1.7758    2.5138    0.0457 C   0  0  0  0  0  4           0  0  0
    1.1999    4.2639   -1.4158 C   0  0  0  0  0  4           0  0  0
   -0.0000    0.0000    0.0000 C   0  0  0  0  0  4           0  0  0
    1.7769   -2.5198   -0.0285 C   0  0  0  0  0  4           0  0  0
    2.5075   -3.4157    0.9715 C   0  0  0  0  0  4           0  0  0
    2.0356   -4.8703    0.9768 C   0  0  0  0  0  4           0  0  0
    2.7844   -5.7312    1.9832 C   0  0  0  0  0  4           0  0  0
  1 12  1  0     0  0
  2 13  1  0     0  0
  3 14  1  0     0  0
  4 15  1  0     0  0
  5 16  1  0     0  0
  6 17  1  0     0  0
  6 28  1  0     0  0
  7 27  2  0     0  0
  8 29  1  0     0  0
  8 30  1  0     0  0
  9 27  1  0     0  0
 10 18  1  0     0  0
 10 19  1  0     0  0
 10 31  1  0     0  0
 11 12  1  0     0  0
 11 18  2  0     0  0
 12 19  2  0     0  0
 13 14  2  0     0  0
 13 15  1  0     0  0
 14 16  1  0     0  0
 15 20  2  0     0  0
 16 21  2  0     0  0
 17 23  2  0     0  0
 17 24  1  0     0  0
 18 32  1  0     0  0
 19 29  1  0     0  0
 20 21  1  0     0  0
 20 27  1  0     0  0
 21 28  1  0     0  0
 22 25  2  0     0  0
 22 26  1  0     0  0
 22 31  1  0     0  0
 23 25  1  0     0  0
 24 26  2  0     0  0
 32 33  1  0     0  0
 33 34  1  0     0  0
 34 35  1  0     0  0
M  END
> <standard_type>
pIC50

> <# Confs.>
25

> <canonical_smiles>
ClC(N=C1CCCC)=C(COC)N1CC2=CC=C(OCC3=C(F)C(F)=C(F)C(F)=C3C(O)=O)C=C2

> <standard_relation>
=

> <Publication_ID>
nan

> <predicted_activity_value>
5.552841968657781

> <actual_activity_value>
5.920818753952375

> <Compound>
16

> <standard_units>
nM

> hash
2111710999732551678

$$$$
16_
XXILIB    08252103443D 0   0.00000     0.00000

 35 37  0     1  0            999 V2000
    5.0043    1.4905    0.0959 Cl  0  0  0  0  0  1           0  0  0
   -3.9894   -0.3909   11.1910 F   0  0  0  0  0  1           0  0  0
   -4.9408   -2.1664    9.3557 F   0  0  0  0  0  1           0  0  0
   -1.8140    1.1308   10.6133 F   0  0  0  0  0  1           0  0  0
   -3.7347   -2.4307    6.9503 F   0  0  0  0  0  1           0  0  0
   -2.0636   -0.0150    5.2704 O   0  0  0  0  0  2           0  0  0
    0.6873    0.6785    8.4638 O   0  0  0  0  0  2           0  0  0
    1.6652    2.9245   -1.3110 O   0  0  0  0  0  2           0  0  0
   -0.8527    2.1303    7.6167 O   0  0  0  0  0  2           0  0  0
    1.4523   -0.0000   -0.0000 N   0  0  0  0  0  3           0  0  0
    3.5375   -0.7648    0.0278 N   0  0  0  0  0  3           0  0  0
    3.5487    0.6053    0.0496 C   0  0  0  0  0  4           0  0  0
   -3.3786   -0.5219   10.0064 C   0  0  0  0  0  4           0  0  0
   -3.8616   -1.4249    9.0727 C   0  0  0  0  0  4           0  0  0
   -2.2663    0.2507    9.7087 C   0  0  0  0  0  4           0  0  0
   -3.2327   -1.5589    7.8380 C   0  0  0  0  0  4           0  0  0
   -1.5834   -0.0306    3.9912 C   0  0  0  0  0  4           0  0  0
    2.2670   -1.1150    0.0000 C   0  0  0  0  0  4           0  0  0
    2.2644    1.1161    0.0329 C   0  0  0  0  0  4           0  0  0
   -1.6282    0.1114    8.4730 C   0  0  0  0  0  4           0  0  0
   -2.0993   -0.8005    7.5121 C   0  0  0  0  0  4           0  0  0
   -0.5423    0.0000    1.3965 C   0  0  0  0  0  4           0  0  0
   -2.1117    0.8486    3.0467 C   0  0  0  0  0  4           0  0  0
   -0.5295   -0.8815    3.6613 C   0  0  0  0  0  4           0  0  0
   -1.5971    0.8553    1.7498 C   0  0  0  0  0  4           0  0  0
   -0.0172   -0.8706    2.3634 C   0  0  0  0  0  4           0  0  0
   -0.4657    0.9732    8.1985 C   0  0  0  0  0  4           0  0  0
   -1.4610   -0.9500    6.1625 C   0  0  0  0  0  4           0  0  0
    1.7758    2.5138    0.0457 C   0  0  0  0  0  4           0  0  0
    1.1999    4.2639   -1.4158 C   0  0  0  0  0  4           0  0  0
   -0.0000    0.0000    0.0000 C   0  0  0  0  0  4           0  0  0
    1.7769   -2.5198   -0.0285 C   0  0  0  0  0  4           0  0  0
    2.5449   -3.3883   -1.0244 C   0  0  0  0  0  4           0  0  0
    2.0744   -4.8419   -1.0874 C   0  0  0  0  0  4           0  0  0
    2.8608   -5.6753   -2.0882 C   0  0  0  0  0  4           0  0  0
  1 12  1  0     0  0
  2 13  1  0     0  0
  3 14  1  0     0  0
  4 15  1  0     0  0
  5 16  1  0     0  0
  6 17  1  0     0  0
  6 28  1  0     0  0
  7 27  2  0     0  0
  8 29  1  0     0  0
  8 30  1  0     0  0
  9 27  1  0     0  0
 10 18  1  0     0  0
 10 19  1  0     0  0
 10 31  1  0     0  0
 11 12  1  0     0  0
 11 18  2  0     0  0
 12 19  2  0     0  0
 13 14  2  0     0  0
 13 15  1  0     0  0
 14 16  1  0     0  0
 15 20  2  0     0  0
 16 21  2  0     0  0
 17 23  2  0     0  0
 17 24  1  0     0  0
 18 32  1  0     0  0
 19 29  1  0     0  0
 20 21  1  0     0  0
 20 27  1  0     0  0
 21 28  1  0     0  0
 22 25  2  0     0  0
 22 26  1  0     0  0
 22 31  1  0     0  0
 23 25  1  0     0  0
 24 26  2  0     0  0
 32 33  1  0     0  0
 33 34  1  0     0  0
 34 35  1  0     0  0
M  END
> <standard_type>
pIC50

> <# Confs.>
25

> <canonical_smiles>
ClC(N=C1CCCC)=C(COC)N1CC2=CC=C(OCC3=C(F)C(F)=C(F)C(F)=C3C(O)=O)C=C2

> <standard_relation>
=

> <Publication_ID>
nan

> <predicted_activity_value>
5.552841968657781

> <actual_activity_value>
5.920818753952375

> <Compound>
16

> <standard_units>
nM

> hash
2111710999732551678

$$$$
16_
XXILIB    08252103443D 0   0.00000     0.00000

 35 37  0     1  0            999 V2000
    5.0043   -1.4905   -0.0959 Cl  0  0  0  0  0  1           0  0  0
   -4.4829   -0.5132   10.9951 F   0  0  0  0  0  1           0  0  0
   -6.1116   -0.6716    8.8161 F   0  0  0  0  0  1           0  0  0
   -1.7901   -0.7231   10.7009 F   0  0  0  0  0  1           0  0  0
   -5.0688   -1.0375    6.3485 F   0  0  0  0  0  1           0  0  0
   -2.0287   -0.0005    5.2840 O   0  0  0  0  0  2           0  0  0
    0.0664   -2.1411    8.3293 O   0  0  0  0  0  2           0  0  0
    1.6652   -2.9245    1.3110 O   0  0  0  0  0  2           0  0  0
   -0.0316    0.1174    8.0356 O   0  0  0  0  0  2           0  0  0
    1.4523   -0.0000    0.0000 N   0  0  0  0  0  3           0  0  0
    3.5375    0.7648   -0.0278 N   0  0  0  0  0  3           0  0  0
    3.5487   -0.6053   -0.0496 C   0  0  0  0  0  4           0  0  0
   -3.9573   -0.7051    9.7784 C   0  0  0  0  0  4           0  0  0
   -4.7850   -0.7862    8.6698 C   0  0  0  0  0  4           0  0  0
   -2.5837   -0.8157    9.6242 C   0  0  0  0  0  4           0  0  0
   -4.2413   -0.9792    7.4030 C   0  0  0  0  0  4           0  0  0
   -1.5135   -0.0005    4.0183 C   0  0  0  0  0  4           0  0  0
    2.2670    1.1150    0.0000 C   0  0  0  0  0  4           0  0  0
    2.2644   -1.1161   -0.0329 C   0  0  0  0  0  4           0  0  0
   -2.0364   -1.0183    8.3542 C   0  0  0  0  0  4           0  0  0
   -2.8574   -1.1065    7.2162 C   0  0  0  0  0  4           0  0  0
   -0.5423   -0.0000    1.3965 C   0  0  0  0  0  4           0  0  0
   -1.2936   -1.2121    3.3644 C   0  0  0  0  0  4           0  0  0
   -1.2721    1.2115    3.3729 C   0  0  0  0  0  4           0  0  0
   -0.7997   -1.2096    2.0594 C   0  0  0  0  0  4           0  0  0
   -0.7793    1.2092    2.0675 C   0  0  0  0  0  4           0  0  0
   -0.5702   -1.1048    8.2432 C   0  0  0  0  0  4           0  0  0
   -2.3018   -1.2873    5.8342 C   0  0  0  0  0  4           0  0  0
    1.7758   -2.5138   -0.0457 C   0  0  0  0  0  4           0  0  0
    1.1999   -4.2639    1.4158 C   0  0  0  0  0  4           0  0  0
    0.0000    0.0000    0.0000 C   0  0  0  0  0  4           0  0  0
    1.7769    2.5198    0.0285 C   0  0  0  0  0  4           0  0  0
    2.5075    3.4157   -0.9715 C   0  0  0  0  0  4           0  0  0
    2.3741    2.9733   -2.4291 C   0  0  0  0  0  4           0  0  0
    3.1133    3.8876   -3.3947 C   0  0  0  0  0  4           0  0  0
  1 12  1  0     0  0
  2 13  1  0     0  0
  3 14  1  0     0  0
  4 15  1  0     0  0
  5 16  1  0     0  0
  6 17  1  0     0  0
  6 28  1  0     0  0
  7 27  2  0     0  0
  8 29  1  0     0  0
  8 30  1  0     0  0
  9 27  1  0     0  0
 10 18  1  0     0  0
 10 19  1  0     0  0
 10 31  1  0     0  0
 11 12  1  0     0  0
 11 18  2  0     0  0
 12 19  2  0     0  0
 13 14  2  0     0  0
 13 15  1  0     0  0
 14 16  1  0     0  0
 15 20  2  0     0  0
 16 21  2  0     0  0
 17 23  2  0     0  0
 17 24  1  0     0  0
 18 32  1  0     0  0
 19 29  1  0     0  0
 20 21  1  0     0  0
 20 27  1  0     0  0
 21 28  1  0     0  0
 22 25  2  0     0  0
 22 26  1  0     0  0
 22 31  1  0     0  0
 23 25  1  0     0  0
 24 26  2  0     0  0
 32 33  1  0     0  0
 33 34  1  0     0  0
 34 35  1  0     0  0
M  END
> <standard_type>
pIC50

> <# Confs.>
25

> <canonical_smiles>
ClC(N=C1CCCC)=C(COC)N1CC2=CC=C(OCC3=C(F)C(F)=C(F)C(F)=C3C(O)=O)C=C2

> <standard_relation>
=

> <Publication_ID>
nan

> <predicted_activity_value>
5.552841968657781

> <actual_activity_value>
5.920818753952375

> <Compound>
16

> <standard_units>
nM

> hash
2111710999732551678

$$$$
16_
XXILIB    08252103443D 0   0.00000     0.00000

 35 37  0     1  0            999 V2000
    5.0043    1.4905    0.0959 Cl  0  0  0  0  0  1           0  0  0
   -4.7327    0.5922   10.9290 F   0  0  0  0  0  1           0  0  0
   -6.5813    0.7081    8.9302 F   0  0  0  0  0  1           0  0  0
   -2.0816    0.6443   10.3370 F   0  0  0  0  0  1           0  0  0
   -5.7993    0.8756    6.3474 F   0  0  0  0  0  1           0  0  0
   -2.0636   -0.0150    5.2704 O   0  0  0  0  0  2           0  0  0
   -0.3328   -0.0619    8.0706 O   0  0  0  0  0  2           0  0  0
    1.6652    2.9245   -1.3110 O   0  0  0  0  0  2           0  0  0
   -0.7917    1.9437    7.0890 O   0  0  0  0  0  2           0  0  0
    1.4523   -0.0000   -0.0000 N   0  0  0  0  0  3           0  0  0
    3.5375   -0.7648    0.0278 N   0  0  0  0  0  3           0  0  0
    3.5487    0.6053    0.0496 C   0  0  0  0  0  4           0  0  0
   -4.3352    0.6645    9.6523 C   0  0  0  0  0  4           0  0  0
   -5.2747    0.7230    8.6351 C   0  0  0  0  0  4           0  0  0
   -2.9830    0.6884    9.3455 C   0  0  0  0  0  4           0  0  0
   -4.8646    0.8046    7.3074 C   0  0  0  0  0  4           0  0  0
   -1.5834   -0.0306    3.9912 C   0  0  0  0  0  4           0  0  0
    2.2670   -1.1150    0.0000 C   0  0  0  0  0  4           0  0  0
    2.2644    1.1161    0.0329 C   0  0  0  0  0  4           0  0  0
   -2.5693    0.7614    8.0125 C   0  0  0  0  0  4           0  0  0
   -3.5050    0.8187    6.9647 C   0  0  0  0  0  4           0  0  0
   -0.5423   -0.0000    1.3965 C   0  0  0  0  0  4           0  0  0
   -2.1117    0.8486    3.0467 C   0  0  0  0  0  4           0  0  0
   -0.5295   -0.8815    3.6613 C   0  0  0  0  0  4           0  0  0
   -1.5971    0.8553    1.7498 C   0  0  0  0  0  4           0  0  0
   -0.0172   -0.8706    2.3634 C   0  0  0  0  0  4           0  0  0
   -1.1219    0.8081    7.7435 C   0  0  0  0  0  4           0  0  0
   -3.0967    0.9341    5.5255 C   0  0  0  0  0  4           0  0  0
    1.7758    2.5138    0.0457 C   0  0  0  0  0  4           0  0  0
    1.1999    4.2639   -1.4158 C   0  0  0  0  0  4           0  0  0
    0.0000    0.0000    0.0000 C   0  0  0  0  0  4           0  0  0
    1.7769   -2.5198   -0.0285 C   0  0  0  0  0  4           0  0  0
    2.5449   -3.3883   -1.0244 C   0  0  0  0  0  4           0  0  0
    2.4661   -2.9061   -2.4734 C   0  0  0  0  0  4           0  0  0
    3.2415   -3.7940   -3.4353 C   0  0  0  0  0  4           0  0  0
  1 12  1  0     0  0
  2 13  1  0     0  0
  3 14  1  0     0  0
  4 15  1  0     0  0
  5 16  1  0     0  0
  6 17  1  0     0  0
  6 28  1  0     0  0
  7 27  2  0     0  0
  8 29  1  0     0  0
  8 30  1  0     0  0
  9 27  1  0     0  0
 10 18  1  0     0  0
 10 19  1  0     0  0
 10 31  1  0     0  0
 11 12  1  0     0  0
 11 18  2  0     0  0
 12 19  2  0     0  0
 13 14  2  0     0  0
 13 15  1  0     0  0
 14 16  1  0     0  0
 15 20  2  0     0  0
 16 21  2  0     0  0
 17 23  2  0     0  0
 17 24  1  0     0  0
 18 32  1  0     0  0
 19 29  1  0     0  0
 20 21  1  0     0  0
 20 27  1  0     0  0
 21 28  1  0     0  0
 22 25  2  0     0  0
 22 26  1  0     0  0
 22 31  1  0     0  0
 23 25  1  0     0  0
 24 26  2  0     0  0
 32 33  1  0     0  0
 33 34  1  0     0  0
 34 35  1  0     0  0
M  END
> <standard_type>
pIC50

> <# Confs.>
25

> <canonical_smiles>
ClC(N=C1CCCC)=C(COC)N1CC2=CC=C(OCC3=C(F)C(F)=C(F)C(F)=C3C(O)=O)C=C2

> <standard_relation>
=

> <Publication_ID>
nan

> <predicted_activity_value>
5.552841968657781

> <actual_activity_value>
5.920818753952375

> <Compound>
16

> <standard_units>
nM

> hash
2111710999732551678

$$$$
16_
XXILIB    08252103443D 0   0.00000     0.00000

 35 37  0     1  0            999 V2000
    5.0043   -1.4905   -0.0959 Cl  0  0  0  0  0  1           0  0  0
   -3.9894   -0.3909   11.1910 F   0  0  0  0  0  1           0  0  0
   -4.9408   -2.1664    9.3557 F   0  0  0  0  0  1           0  0  0
   -1.8140    1.1308   10.6133 F   0  0  0  0  0  1           0  0  0
   -3.7347   -2.4307    6.9503 F   0  0  0  0  0  1           0  0  0
   -2.0636   -0.0150    5.2704 O   0  0  0  0  0  2           0  0  0
    0.6873    0.6785    8.4638 O   0  0  0  0  0  2           0  0  0
    1.6141   -2.8817   -1.4095 O   0  0  0  0  0  2           0  0  0
   -0.8527    2.1303    7.6167 O   0  0  0  0  0  2           0  0  0
    1.4523    0.0000    0.0000 N   0  0  0  0  0  3           0  0  0
    3.5375    0.7648   -0.0278 N   0  0  0  0  0  3           0  0  0
    3.5487   -0.6053   -0.0496 C   0  0  0  0  0  4           0  0  0
   -3.3786   -0.5219   10.0064 C   0  0  0  0  0  4           0  0  0
   -3.8616   -1.4249    9.0727 C   0  0  0  0  0  4           0  0  0
   -2.2663    0.2507    9.7087 C   0  0  0  0  0  4           0  0  0
   -3.2327   -1.5589    7.8380 C   0  0  0  0  0  4           0  0  0
   -1.5834   -0.0306    3.9912 C   0  0  0  0  0  4           0  0  0
    2.2670    1.1150    0.0000 C   0  0  0  0  0  4           0  0  0
    2.2644   -1.1161   -0.0329 C   0  0  0  0  0  4           0  0  0
   -1.6282    0.1114    8.4730 C   0  0  0  0  0  4           0  0  0
   -2.0993   -0.8005    7.5121 C   0  0  0  0  0  4           0  0  0
   -0.5423    0.0000    1.3965 C   0  0  0  0  0  4           0  0  0
   -2.1117    0.8486    3.0467 C   0  0  0  0  0  4           0  0  0
   -0.5295   -0.8815    3.6613 C   0  0  0  0  0  4           0  0  0
   -1.5971    0.8553    1.7498 C   0  0  0  0  0  4           0  0  0
   -0.0172   -0.8706    2.3634 C   0  0  0  0  0  4           0  0  0
   -0.4657    0.9732    8.1985 C   0  0  0  0  0  4           0  0  0
   -1.4610   -0.9500    6.1625 C   0  0  0  0  0  4           0  0  0
    1.7758   -2.5138   -0.0457 C   0  0  0  0  0  4           0  0  0
    1.1443   -4.2173   -1.5388 C   0  0  0  0  0  4           0  0  0
   -0.0000    0.0000    0.0000 C   0  0  0  0  0  4           0  0  0
    1.7769    2.5198    0.0285 C   0  0  0  0  0  4           0  0  0
    1.5574    3.0923   -1.3717 C   0  0  0  0  0  4           0  0  0
    1.0530    4.5358   -1.3907 C   0  0  0  0  0  4           0  0  0
    0.8463    5.0715   -2.7996 C   0  0  0  0  0  4           0  0  0
  1 12  1  0     0  0
  2 13  1  0     0  0
  3 14  1  0     0  0
  4 15  1  0     0  0
  5 16  1  0     0  0
  6 17  1  0     0  0
  6 28  1  0     0  0
  7 27  2  0     0  0
  8 29  1  0     0  0
  8 30  1  0     0  0
  9 27  1  0     0  0
 10 18  1  0     0  0
 10 19  1  0     0  0
 10 31  1  0     0  0
 11 12  1  0     0  0
 11 18  2  0     0  0
 12 19  2  0     0  0
 13 14  2  0     0  0
 13 15  1  0     0  0
 14 16  1  0     0  0
 15 20  2  0     0  0
 16 21  2  0     0  0
 17 23  2  0     0  0
 17 24  1  0     0  0
 18 32  1  0     0  0
 19 29  1  0     0  0
 20 21  1  0     0  0
 20 27  1  0     0  0
 21 28  1  0     0  0
 22 25  2  0     0  0
 22 26  1  0     0  0
 22 31  1  0     0  0
 23 25  1  0     0  0
 24 26  2  0     0  0
 32 33  1  0     0  0
 33 34  1  0     0  0
 34 35  1  0     0  0
M  END
> <standard_type>
pIC50

> <# Confs.>
25

> <canonical_smiles>
ClC(N=C1CCCC)=C(COC)N1CC2=CC=C(OCC3=C(F)C(F)=C(F)C(F)=C3C(O)=O)C=C2

> <standard_relation>
=

> <Publication_ID>
nan

> <predicted_activity_value>
5.552841968657781

> <actual_activity_value>
5.920818753952375

> <Compound>
16

> <standard_units>
nM

> hash
2111710999732551678

$$$$
16_
XXILIB    08252103443D 0   0.00000     0.00000

 35 37  0     1  0            999 V2000
    5.0043   -1.4905   -0.0959 Cl  0  0  0  0  0  1           0  0  0
   -4.3656    0.7390   11.0723 F   0  0  0  0  0  1           0  0  0
   -5.4141    2.5511    9.3281 F   0  0  0  0  0  1           0  0  0
   -2.2709   -0.8200   10.3213 F   0  0  0  0  0  1           0  0  0
   -4.3847    2.8156    6.8419 F   0  0  0  0  0  1           0  0  0
   -2.0287   -0.0005    5.2840 O   0  0  0  0  0  2           0  0  0
   -1.1276   -1.8916    7.8238 O   0  0  0  0  0  2           0  0  0
    1.6141   -2.8817   -1.4095 O   0  0  0  0  0  2           0  0  0
   -0.0389    0.0804    7.4737 O   0  0  0  0  0  2           0  0  0
    1.4523    0.0000    0.0000 N   0  0  0  0  0  3           0  0  0
    3.5375    0.7648   -0.0278 N   0  0  0  0  0  3           0  0  0
    3.5487   -0.6053   -0.0496 C   0  0  0  0  0  4           0  0  0
   -3.8554    0.8550    9.8396 C   0  0  0  0  0  4           0  0  0
   -4.3883    1.7761    8.9518 C   0  0  0  0  0  4           0  0  0
   -2.7882    0.0592    9.4512 C   0  0  0  0  0  4           0  0  0
   -3.8561    1.9035    7.6718 C   0  0  0  0  0  4           0  0  0
   -1.5135   -0.0005    4.0183 C   0  0  0  0  0  4           0  0  0
    2.2670    1.1150    0.0000 C   0  0  0  0  0  4           0  0  0
    2.2644   -1.1161   -0.0329 C   0  0  0  0  0  4           0  0  0
   -2.2580    0.1796    8.1637 C   0  0  0  0  0  4           0  0  0
   -2.7850    1.1051    7.2458 C   0  0  0  0  0  4           0  0  0
   -0.5423    0.0000    1.3965 C   0  0  0  0  0  4           0  0  0
   -1.2936   -1.2121    3.3644 C   0  0  0  0  0  4           0  0  0
   -1.2721    1.2115    3.3729 C   0  0  0  0  0  4           0  0  0
   -0.7997   -1.2096    2.0594 C   0  0  0  0  0  4           0  0  0
   -0.7793    1.2092    2.0675 C   0  0  0  0  0  4           0  0  0
   -1.1096   -0.6725    7.8106 C   0  0  0  0  0  4           0  0  0
   -2.2175    1.2861    5.8687 C   0  0  0  0  0  4           0  0  0
    1.7758   -2.5138   -0.0457 C   0  0  0  0  0  4           0  0  0
    1.1443   -4.2173   -1.5388 C   0  0  0  0  0  4           0  0  0
    0.0000   -0.0000    0.0000 C   0  0  0  0  0  4           0  0  0
    1.7769    2.5198    0.0285 C   0  0  0  0  0  4           0  0  0
    2.5075    3.4157   -0.9715 C   0  0  0  0  0  4           0  0  0
    2.3741    2.9733   -2.4291 C   0  0  0  0  0  4           0  0  0
    3.1133    3.8876   -3.3947 C   0  0  0  0  0  4           0  0  0
  1 12  1  0     0  0
  2 13  1  0     0  0
  3 14  1  0     0  0
  4 15  1  0     0  0
  5 16  1  0     0  0
  6 17  1  0     0  0
  6 28  1  0     0  0
  7 27  2  0     0  0
  8 29  1  0     0  0
  8 30  1  0     0  0
  9 27  1  0     0  0
 10 18  1  0     0  0
 10 19  1  0     0  0
 10 31  1  0     0  0
 11 12  1  0     0  0
 11 18  2  0     0  0
 12 19  2  0     0  0
 13 14  2  0     0  0
 13 15  1  0     0  0
 14 16  1  0     0  0
 15 20  2  0     0  0
 16 21  2  0     0  0
 17 23  2  0     0  0
 17 24  1  0     0  0
 18 32  1  0     0  0
 19 29  1  0     0  0
 20 21  1  0     0  0
 20 27  1  0     0  0
 21 28  1  0     0  0
 22 25  2  0     0  0
 22 26  1  0     0  0
 22 31  1  0     0  0
 23 25  1  0     0  0
 24 26  2  0     0  0
 32 33  1  0     0  0
 33 34  1  0     0  0
 34 35  1  0     0  0
M  END
> <standard_type>
pIC50

> <# Confs.>
25

> <canonical_smiles>
ClC(N=C1CCCC)=C(COC)N1CC2=CC=C(OCC3=C(F)C(F)=C(F)C(F)=C3C(O)=O)C=C2

> <standard_relation>
=

> <Publication_ID>
nan

> <predicted_activity_value>
5.552841968657781

> <actual_activity_value>
5.920818753952375

> <Compound>
16

> <standard_units>
nM

> hash
2111710999732551678

$$$$
16_
XXILIB    08252103443D 0   0.00000     0.00000

 35 37  0     1  0            999 V2000
    5.0043    1.4905    0.0959 Cl  0  0  0  0  0  1           0  0  0
   -3.7435   -0.3823   11.3063 F   0  0  0  0  0  1           0  0  0
   -1.5814    1.1096   10.5817 F   0  0  0  0  0  1           0  0  0
   -4.8185   -2.1618    9.5571 F   0  0  0  0  0  1           0  0  0
   -0.4877    0.8354    8.1242 F   0  0  0  0  0  1           0  0  0
   -2.0636   -0.0150    5.2704 O   0  0  0  0  0  2           0  0  0
   -3.4685   -3.7204    6.9299 O   0  0  0  0  0  2           0  0  0
    1.6652    2.9245   -1.3110 O   0  0  0  0  0  2           0  0  0
   -4.8055   -1.9958    6.2704 O   0  0  0  0  0  2           0  0  0
    1.4523   -0.0000   -0.0000 N   0  0  0  0  0  3           0  0  0
    3.5375   -0.7648    0.0278 N   0  0  0  0  0  3           0  0  0
    3.5487    0.6053    0.0496 C   0  0  0  0  0  4           0  0  0
   -3.2156   -0.5180   10.0831 C   0  0  0  0  0  4           0  0  0
   -2.1162    0.2407    9.7137 C   0  0  0  0  0  4           0  0  0
   -3.7629   -1.4229    9.1862 C   0  0  0  0  0  4           0  0  0
   -1.5613    0.0974    8.4451 C   0  0  0  0  0  4           0  0  0
   -1.5834   -0.0306    3.9912 C   0  0  0  0  0  4           0  0  0
    2.2670   -1.1150    0.0000 C   0  0  0  0  0  4           0  0  0
    2.2644    1.1161    0.0329 C   0  0  0  0  0  4           0  0  0
   -3.2126   -1.5620    7.9091 C   0  0  0  0  0  4           0  0  0
   -2.0993   -0.8005    7.5121 C   0  0  0  0  0  4           0  0  0
   -0.5423    0.0000    1.3965 C   0  0  0  0  0  4           0  0  0
   -2.1117    0.8486    3.0467 C   0  0  0  0  0  4           0  0  0
   -0.5295   -0.8815    3.6613 C   0  0  0  0  0  4           0  0  0
   -1.5971    0.8553    1.7498 C   0  0  0  0  0  4           0  0  0
   -0.0172   -0.8706    2.3634 C   0  0  0  0  0  4           0  0  0
   -3.8173   -2.5544    7.0041 C   0  0  0  0  0  4           0  0  0
   -1.4610   -0.9500    6.1625 C   0  0  0  0  0  4           0  0  0
    1.7758    2.5138    0.0457 C   0  0  0  0  0  4           0  0  0
    1.1999    4.2639   -1.4158 C   0  0  0  0  0  4           0  0  0
   -0.0000    0.0000    0.0000 C   0  0  0  0  0  4           0  0  0
    1.7769   -2.5198   -0.0285 C   0  0  0  0  0  4           0  0  0
    2.5075   -3.4157    0.9715 C   0  0  0  0  0  4           0  0  0
    2.0356   -4.8703    0.9768 C   0  0  0  0  0  4           0  0  0
    2.7844   -5.7312    1.9832 C   0  0  0  0  0  4           0  0  0
  1 12  1  0     0  0
  2 13  1  0     0  0
  3 14  1  0     0  0
  4 15  1  0     0  0
  5 16  1  0     0  0
  6 17  1  0     0  0
  6 28  1  0     0  0
  7 27  2  0     0  0
  8 29  1  0     0  0
  8 30  1  0     0  0
  9 27  1  0     0  0
 10 18  1  0     0  0
 10 19  1  0     0  0
 10 31  1  0     0  0
 11 12  1  0     0  0
 11 18  2  0     0  0
 12 19  2  0     0  0
 13 14  2  0     0  0
 13 15  1  0     0  0
 14 16  1  0     0  0
 15 20  2  0     0  0
 16 21  2  0     0  0
 17 23  2  0     0  0
 17 24  1  0     0  0
 18 32  1  0     0  0
 19 29  1  0     0  0
 20 21  1  0     0  0
 20 27  1  0     0  0
 21 28  1  0     0  0
 22 25  2  0     0  0
 22 26  1  0     0  0
 22 31  1  0     0  0
 23 25  1  0     0  0
 24 26  2  0     0  0
 32 33  1  0     0  0
 33 34  1  0     0  0
 34 35  1  0     0  0
M  END
> <standard_type>
pIC50

> <# Confs.>
25

> <canonical_smiles>
ClC(N=C1CCCC)=C(COC)N1CC2=CC=C(OCC3=C(F)C(F)=C(F)C(F)=C3C(O)=O)C=C2

> <standard_relation>
=

> <Publication_ID>
nan

> <predicted_activity_value>
5.552841968657781

> <actual_activity_value>
5.920818753952375

> <Compound>
16

> <standard_units>
nM

> hash
2111710999732551678

$$$$
16_
XXILIB    08252103443D 0   0.00000     0.00000

 35 37  0     1  0            999 V2000
    5.0043    1.4905    0.0959 Cl  0  0  0  0  0  1           0  0  0
   -3.7435   -0.3823   11.3063 F   0  0  0  0  0  1           0  0  0
   -1.5814    1.1096   10.5817 F   0  0  0  0  0  1           0  0  0
   -4.8185   -2.1618    9.5571 F   0  0  0  0  0  1           0  0  0
   -0.4877    0.8354    8.1242 F   0  0  0  0  0  1           0  0  0
   -2.0636   -0.0150    5.2704 O   0  0  0  0  0  2           0  0  0
   -3.4685   -3.7204    6.9299 O   0  0  0  0  0  2           0  0  0
    1.6652    2.9245   -1.3110 O   0  0  0  0  0  2           0  0  0
   -4.8055   -1.9958    6.2704 O   0  0  0  0  0  2           0  0  0
    1.4523   -0.0000   -0.0000 N   0  0  0  0  0  3           0  0  0
    3.5375   -0.7648    0.0278 N   0  0  0  0  0  3           0  0  0
    3.5487    0.6053    0.0496 C   0  0  0  0  0  4           0  0  0
   -3.2156   -0.5180   10.0831 C   0  0  0  0  0  4           0  0  0
   -2.1162    0.2407    9.7137 C   0  0  0  0  0  4           0  0  0
   -3.7629   -1.4229    9.1862 C   0  0  0  0  0  4           0  0  0
   -1.5613    0.0974    8.4451 C   0  0  0  0  0  4           0  0  0
   -1.5834   -0.0306    3.9912 C   0  0  0  0  0  4           0  0  0
    2.2670   -1.1150    0.0000 C   0  0  0  0  0  4           0  0  0
    2.2644    1.1161    0.0329 C   0  0  0  0  0  4           0  0  0
   -3.2126   -1.5620    7.9091 C   0  0  0  0  0  4           0  0  0
   -2.0993   -0.8005    7.5121 C   0  0  0  0  0  4           0  0  0
   -0.5423    0.0000    1.3965 C   0  0  0  0  0  4           0  0  0
   -2.1117    0.8486    3.0467 C   0  0  0  0  0  4           0  0  0
   -0.5295   -0.8815    3.6613 C   0  0  0  0  0  4           0  0  0
   -1.5971    0.8553    1.7498 C   0  0  0  0  0  4           0  0  0
   -0.0172   -0.8706    2.3634 C   0  0  0  0  0  4           0  0  0
   -3.8173   -2.5544    7.0041 C   0  0  0  0  0  4           0  0  0
   -1.4610   -0.9500    6.1625 C   0  0  0  0  0  4           0  0  0
    1.7758    2.5138    0.0457 C   0  0  0  0  0  4           0  0  0
    1.1999    4.2639   -1.4158 C   0  0  0  0  0  4           0  0  0
   -0.0000    0.0000    0.0000 C   0  0  0  0  0  4           0  0  0
    1.7769   -2.5198   -0.0285 C   0  0  0  0  0  4           0  0  0
    2.5449   -3.3883   -1.0244 C   0  0  0  0  0  4           0  0  0
    2.0744   -4.8419   -1.0874 C   0  0  0  0  0  4           0  0  0
    2.8608   -5.6753   -2.0882 C   0  0  0  0  0  4           0  0  0
  1 12  1  0     0  0
  2 13  1  0     0  0
  3 14  1  0     0  0
  4 15  1  0     0  0
  5 16  1  0     0  0
  6 17  1  0     0  0
  6 28  1  0     0  0
  7 27  2  0     0  0
  8 29  1  0     0  0
  8 30  1  0     0  0
  9 27  1  0     0  0
 10 18  1  0     0  0
 10 19  1  0     0  0
 10 31  1  0     0  0
 11 12  1  0     0  0
 11 18  2  0     0  0
 12 19  2  0     0  0
 13 14  2  0     0  0
 13 15  1  0     0  0
 14 16  1  0     0  0
 15 20  2  0     0  0
 16 21  2  0     0  0
 17 23  2  0     0  0
 17 24  1  0     0  0
 18 32  1  0     0  0
 19 29  1  0     0  0
 20 21  1  0     0  0
 20 27  1  0     0  0
 21 28  1  0     0  0
 22 25  2  0     0  0
 22 26  1  0     0  0
 22 31  1  0     0  0
 23 25  1  0     0  0
 24 26  2  0     0  0
 32 33  1  0     0  0
 33 34  1  0     0  0
 34 35  1  0     0  0
M  END
> <standard_type>
pIC50

> <# Confs.>
25

> <canonical_smiles>
ClC(N=C1CCCC)=C(COC)N1CC2=CC=C(OCC3=C(F)C(F)=C(F)C(F)=C3C(O)=O)C=C2

> <standard_relation>
=

> <Publication_ID>
nan

> <predicted_activity_value>
5.552841968657781

> <actual_activity_value>
5.920818753952375

> <Compound>
16

> <standard_units>
nM

> hash
2111710999732551678

$$$$
16_
XXILIB    08252103443D 0   0.00000     0.00000

 35 37  0     1  0            999 V2000
    5.0043   -1.4905   -0.0959 Cl  0  0  0  0  0  1           0  0  0
   -4.3983   -0.7408   11.0589 F   0  0  0  0  0  1           0  0  0
   -2.4297   -2.5528   10.5424 F   0  0  0  0  0  1           0  0  0
   -5.3732    0.8183    9.0588 F   0  0  0  0  0  1           0  0  0
   -1.4302   -2.8169    8.0441 F   0  0  0  0  0  1           0  0  0
   -2.0287   -0.0005    5.2840 O   0  0  0  0  0  2           0  0  0
   -4.4474    1.8903    6.4728 O   0  0  0  0  0  2           0  0  0
    1.6652   -2.9245    1.3110 O   0  0  0  0  0  2           0  0  0
   -4.9821   -0.0816    5.4617 O   0  0  0  0  0  2           0  0  0
    1.4523   -0.0000    0.0000 N   0  0  0  0  0  3           0  0  0
    3.5375    0.7648   -0.0278 N   0  0  0  0  0  3           0  0  0
    3.5487   -0.6053   -0.0496 C   0  0  0  0  0  4           0  0  0
   -3.9026   -0.8567    9.8202 C   0  0  0  0  0  4           0  0  0
   -2.9011   -1.7777    9.5569 C   0  0  0  0  0  4           0  0  0
   -4.3953   -0.0608    8.7971 C   0  0  0  0  0  4           0  0  0
   -2.3882   -1.9050    8.2690 C   0  0  0  0  0  4           0  0  0
   -1.5135   -0.0005    4.0183 C   0  0  0  0  0  4           0  0  0
    2.2670    1.1150    0.0000 C   0  0  0  0  0  4           0  0  0
    2.2644   -1.1161   -0.0329 C   0  0  0  0  0  4           0  0  0
   -3.8756   -0.1810    7.5053 C   0  0  0  0  0  4           0  0  0
   -2.8574   -1.1065    7.2162 C   0  0  0  0  0  4           0  0  0
   -0.5423   -0.0000    1.3965 C   0  0  0  0  0  4           0  0  0
   -1.2936   -1.2121    3.3644 C   0  0  0  0  0  4           0  0  0
   -1.2721    1.2115    3.3729 C   0  0  0  0  0  4           0  0  0
   -0.7997   -1.2096    2.0594 C   0  0  0  0  0  4           0  0  0
   -0.7793    1.2092    2.0675 C   0  0  0  0  0  4           0  0  0
   -4.4510    0.6712    6.4507 C   0  0  0  0  0  4           0  0  0
   -2.3018   -1.2873    5.8342 C   0  0  0  0  0  4           0  0  0
    1.7758   -2.5138   -0.0457 C   0  0  0  0  0  4           0  0  0
    1.1999   -4.2639    1.4158 C   0  0  0  0  0  4           0  0  0
    0.0000    0.0000    0.0000 C   0  0  0  0  0  4           0  0  0
    1.7769    2.5198    0.0285 C   0  0  0  0  0  4           0  0  0
    2.5075    3.4157   -0.9715 C   0  0  0  0  0  4           0  0  0
    2.3741    2.9733   -2.4291 C   0  0  0  0  0  4           0  0  0
    3.1133    3.8876   -3.3947 C   0  0  0  0  0  4           0  0  0
  1 12  1  0     0  0
  2 13  1  0     0  0
  3 14  1  0     0  0
  4 15  1  0     0  0
  5 16  1  0     0  0
  6 17  1  0     0  0
  6 28  1  0     0  0
  7 27  2  0     0  0
  8 29  1  0     0  0
  8 30  1  0     0  0
  9 27  1  0     0  0
 10 18  1  0     0  0
 10 19  1  0     0  0
 10 31  1  0     0  0
 11 12  1  0     0  0
 11 18  2  0     0  0
 12 19  2  0     0  0
 13 14  2  0     0  0
 13 15  1  0     0  0
 14 16  1  0     0  0
 15 20  2  0     0  0
 16 21  2  0     0  0
 17 23  2  0     0  0
 17 24  1  0     0  0
 18 32  1  0     0  0
 19 29  1  0     0  0
 20 21  1  0     0  0
 20 27  1  0     0  0
 21 28  1  0     0  0
 22 25  2  0     0  0
 22 26  1  0     0  0
 22 31  1  0     0  0
 23 25  1  0     0  0
 24 26  2  0     0  0
 32 33  1  0     0  0
 33 34  1  0     0  0
 34 35  1  0     0  0
M  END
> <standard_type>
pIC50

> <# Confs.>
25

> <canonical_smiles>
ClC(N=C1CCCC)=C(COC)N1CC2=CC=C(OCC3=C(F)C(F)=C(F)C(F)=C3C(O)=O)C=C2

> <standard_relation>
=

> <Publication_ID>
nan

> <predicted_activity_value>
5.552841968657781

> <actual_activity_value>
5.920818753952375

> <Compound>
16

> <standard_units>
nM

> hash
2111710999732551678

$$$$
16_
XXILIB    08252103443D 0   0.00000     0.00000

 35 37  0     1  0            999 V2000
    5.0043   -1.4905   -0.0959 Cl  0  0  0  0  0  1           0  0  0
   -3.8285    0.2224   11.2493 F   0  0  0  0  0  1           0  0  0
   -1.6816   -1.2969   10.5365 F   0  0  0  0  0  1           0  0  0
   -4.8224    2.0705    9.5233 F   0  0  0  0  0  1           0  0  0
   -0.5230   -0.9824    8.1138 F   0  0  0  0  0  1           0  0  0
   -2.0628    0.0157    5.2707 O   0  0  0  0  0  2           0  0  0
   -3.4190    3.6898    6.9758 O   0  0  0  0  0  2           0  0  0
    1.6141   -2.8817   -1.4095 O   0  0  0  0  0  2           0  0  0
   -4.6911    1.9530    6.2261 O   0  0  0  0  0  2           0  0  0
    1.4523    0.0000    0.0000 N   0  0  0  0  0  3           0  0  0
    3.5375    0.7648   -0.0278 N   0  0  0  0  0  3           0  0  0
    3.5487   -0.6053   -0.0496 C   0  0  0  0  0  4           0  0  0
   -3.2552    0.3931   10.0511 C   0  0  0  0  0  4           0  0  0
   -2.1631   -0.3789    9.6880 C   0  0  0  0  0  4           0  0  0
   -3.7575    1.3373    9.1683 C   0  0  0  0  0  4           0  0  0
   -1.5689   -0.2083    8.4408 C   0  0  0  0  0  4           0  0  0
   -1.5828    0.0313    3.9914 C   0  0  0  0  0  4           0  0  0
    2.2670    1.1150    0.0000 C   0  0  0  0  0  4           0  0  0
    2.2644   -1.1161   -0.0329 C   0  0  0  0  0  4           0  0  0
   -3.1569    1.5161    7.9191 C   0  0  0  0  0  4           0  0  0
   -2.0463    0.7461    7.5311 C   0  0  0  0  0  4           0  0  0
   -0.5423    0.0000    1.3965 C   0  0  0  0  0  4           0  0  0
   -0.5138    0.8656    3.6672 C   0  0  0  0  0  4           0  0  0
   -2.1266   -0.8318    3.0411 C   0  0  0  0  0  4           0  0  0
   -0.0024    0.8553    2.3690 C   0  0  0  0  0  4           0  0  0
   -1.6113   -0.8395    1.7444 C   0  0  0  0  0  4           0  0  0
   -3.7447    2.5153    7.0104 C   0  0  0  0  0  4           0  0  0
   -1.3996    0.8864    6.1846 C   0  0  0  0  0  4           0  0  0
    1.7758   -2.5138   -0.0457 C   0  0  0  0  0  4           0  0  0
    1.1443   -4.2173   -1.5388 C   0  0  0  0  0  4           0  0  0
    0.0000   -0.0000    0.0000 C   0  0  0  0  0  4           0  0  0
    1.7769    2.5198    0.0285 C   0  0  0  0  0  4           0  0  0
    2.5075    3.4157   -0.9715 C   0  0  0  0  0  4           0  0  0
    2.3741    2.9733   -2.4291 C   0  0  0  0  0  4           0  0  0
    3.1133    3.8876   -3.3947 C   0  0  0  0  0  4           0  0  0
  1 12  1  0     0  0
  2 13  1  0     0  0
  3 14  1  0     0  0
  4 15  1  0     0  0
  5 16  1  0     0  0
  6 17  1  0     0  0
  6 28  1  0     0  0
  7 27  2  0     0  0
  8 29  1  0     0  0
  8 30  1  0     0  0
  9 27  1  0     0  0
 10 18  1  0     0  0
 10 19  1  0     0  0
 10 31  1  0     0  0
 11 12  1  0     0  0
 11 18  2  0     0  0
 12 19  2  0     0  0
 13 14  2  0     0  0
 13 15  1  0     0  0
 14 16  1  0     0  0
 15 20  2  0     0  0
 16 21  2  0     0  0
 17 23  2  0     0  0
 17 24  1  0     0  0
 18 32  1  0     0  0
 19 29  1  0     0  0
 20 21  1  0     0  0
 20 27  1  0     0  0
 21 28  1  0     0  0
 22 25  2  0     0  0
 22 26  1  0     0  0
 22 31  1  0     0  0
 23 25  1  0     0  0
 24 26  2  0     0  0
 32 33  1  0     0  0
 33 34  1  0     0  0
 34 35  1  0     0  0
M  END
> <standard_type>
pIC50

> <# Confs.>
25

> <canonical_smiles>
ClC(N=C1CCCC)=C(COC)N1CC2=CC=C(OCC3=C(F)C(F)=C(F)C(F)=C3C(O)=O)C=C2

> <standard_relation>
=

> <Publication_ID>
nan

> <predicted_activity_value>
5.552841968657781

> <actual_activity_value>
5.920818753952375

> <Compound>
16

> <standard_units>
nM

> hash
2111710999732551678

$$$$
16_
XXILIB    08252103443D 0   0.00000     0.00000

 35 37  0     1  0            999 V2000
    5.0043   -1.4905   -0.0959 Cl  0  0  0  0  0  1           0  0  0
   -4.7327    0.5922   10.9290 F   0  0  0  0  0  1           0  0  0
   -6.5813    0.7081    8.9302 F   0  0  0  0  0  1           0  0  0
   -2.0816    0.6443   10.3370 F   0  0  0  0  0  1           0  0  0
   -5.7993    0.8756    6.3474 F   0  0  0  0  0  1           0  0  0
   -2.0636   -0.0150    5.2704 O   0  0  0  0  0  2           0  0  0
   -0.3328   -0.0619    8.0706 O   0  0  0  0  0  2           0  0  0
    1.6141   -2.8817   -1.4095 O   0  0  0  0  0  2           0  0  0
   -0.7917    1.9437    7.0890 O   0  0  0  0  0  2           0  0  0
    1.4523    0.0000    0.0000 N   0  0  0  0  0  3           0  0  0
    3.5375    0.7648   -0.0278 N   0  0  0  0  0  3           0  0  0
    3.5487   -0.6053   -0.0496 C   0  0  0  0  0  4           0  0  0
   -4.3352    0.6645    9.6523 C   0  0  0  0  0  4           0  0  0
   -5.2747    0.7230    8.6351 C   0  0  0  0  0  4           0  0  0
   -2.9830    0.6884    9.3455 C   0  0  0  0  0  4           0  0  0
   -4.8646    0.8046    7.3074 C   0  0  0  0  0  4           0  0  0
   -1.5834   -0.0306    3.9912 C   0  0  0  0  0  4           0  0  0
    2.2670    1.1150    0.0000 C   0  0  0  0  0  4           0  0  0
    2.2644   -1.1161   -0.0329 C   0  0  0  0  0  4           0  0  0
   -2.5693    0.7614    8.0125 C   0  0  0  0  0  4           0  0  0
   -3.5050    0.8187    6.9647 C   0  0  0  0  0  4           0  0  0
   -0.5423   -0.0000    1.3965 C   0  0  0  0  0  4           0  0  0
   -2.1117    0.8486    3.0467 C   0  0  0  0  0  4           0  0  0
   -0.5295   -0.8815    3.6613 C   0  0  0  0  0  4           0  0  0
   -1.5971    0.8553    1.7498 C   0  0  0  0  0  4           0  0  0
   -0.0172   -0.8706    2.3634 C   0  0  0  0  0  4           0  0  0
   -1.1219    0.8081    7.7435 C   0  0  0  0  0  4           0  0  0
   -3.0967    0.9341    5.5255 C   0  0  0  0  0  4           0  0  0
    1.7758   -2.5138   -0.0457 C   0  0  0  0  0  4           0  0  0
    1.1443   -4.2173   -1.5388 C   0  0  0  0  0  4           0  0  0
    0.0000    0.0000    0.0000 C   0  0  0  0  0  4           0  0  0
    1.7769    2.5198    0.0285 C   0  0  0  0  0  4           0  0  0
    1.5574    3.0923   -1.3717 C   0  0  0  0  0  4           0  0  0
    2.8126    3.1226   -2.2445 C   0  0  0  0  0  4           0  0  0
    2.5564    3.6980   -3.6293 C   0  0  0  0  0  4           0  0  0
  1 12  1  0     0  0
  2 13  1  0     0  0
  3 14  1  0     0  0
  4 15  1  0     0  0
  5 16  1  0     0  0
  6 17  1  0     0  0
  6 28  1  0     0  0
  7 27  2  0     0  0
  8 29  1  0     0  0
  8 30  1  0     0  0
  9 27  1  0     0  0
 10 18  1  0     0  0
 10 19  1  0     0  0
 10 31  1  0     0  0
 11 12  1  0     0  0
 11 18  2  0     0  0
 12 19  2  0     0  0
 13 14  2  0     0  0
 13 15  1  0     0  0
 14 16  1  0     0  0
 15 20  2  0     0  0
 16 21  2  0     0  0
 17 23  2  0     0  0
 17 24  1  0     0  0
 18 32  1  0     0  0
 19 29  1  0     0  0
 20 21  1  0     0  0
 20 27  1  0     0  0
 21 28  1  0     0  0
 22 25  2  0     0  0
 22 26  1  0     0  0
 22 31  1  0     0  0
 23 25  1  0     0  0
 24 26  2  0     0  0
 32 33  1  0     0  0
 33 34  1  0     0  0
 34 35  1  0     0  0
M  END
> <standard_type>
pIC50

> <# Confs.>
25

> <canonical_smiles>
ClC(N=C1CCCC)=C(COC)N1CC2=CC=C(OCC3=C(F)C(F)=C(F)C(F)=C3C(O)=O)C=C2

> <standard_relation>
=

> <Publication_ID>
nan

> <predicted_activity_value>
5.552841968657781

> <actual_activity_value>
5.920818753952375

> <Compound>
16

> <standard_units>
nM

> hash
2111710999732551678

$$$$
16_
XXILIB    08252103443D 0   0.00000     0.00000

 35 37  0     1  0            999 V2000
    5.0043    1.4905    0.0959 Cl  0  0  0  0  0  1           0  0  0
   -4.7327    0.5922   10.9290 F   0  0  0  0  0  1           0  0  0
   -6.5813    0.7081    8.9302 F   0  0  0  0  0  1           0  0  0
   -2.0816    0.6443   10.3370 F   0  0  0  0  0  1           0  0  0
   -5.7993    0.8756    6.3474 F   0  0  0  0  0  1           0  0  0
   -2.0636   -0.0150    5.2704 O   0  0  0  0  0  2           0  0  0
   -0.3328   -0.0619    8.0706 O   0  0  0  0  0  2           0  0  0
    1.6652    2.9245   -1.3110 O   0  0  0  0  0  2           0  0  0
   -0.7917    1.9437    7.0890 O   0  0  0  0  0  2           0  0  0
    1.4523   -0.0000   -0.0000 N   0  0  0  0  0  3           0  0  0
    3.5375   -0.7648    0.0278 N   0  0  0  0  0  3           0  0  0
    3.5487    0.6053    0.0496 C   0  0  0  0  0  4           0  0  0
   -4.3352    0.6645    9.6523 C   0  0  0  0  0  4           0  0  0
   -5.2747    0.7230    8.6351 C   0  0  0  0  0  4           0  0  0
   -2.9830    0.6884    9.3455 C   0  0  0  0  0  4           0  0  0
   -4.8646    0.8046    7.3074 C   0  0  0  0  0  4           0  0  0
   -1.5834   -0.0306    3.9912 C   0  0  0  0  0  4           0  0  0
    2.2670   -1.1150    0.0000 C   0  0  0  0  0  4           0  0  0
    2.2644    1.1161    0.0329 C   0  0  0  0  0  4           0  0  0
   -2.5693    0.7614    8.0125 C   0  0  0  0  0  4           0  0  0
   -3.5050    0.8187    6.9647 C   0  0  0  0  0  4           0  0  0
   -0.5423   -0.0000    1.3965 C   0  0  0  0  0  4           0  0  0
   -2.1117    0.8486    3.0467 C   0  0  0  0  0  4           0  0  0
   -0.5295   -0.8815    3.6613 C   0  0  0  0  0  4           0  0  0
   -1.5971    0.8553    1.7498 C   0  0  0  0  0  4           0  0  0
   -0.0172   -0.8706    2.3634 C   0  0  0  0  0  4           0  0  0
   -1.1219    0.8081    7.7435 C   0  0  0  0  0  4           0  0  0
   -3.0967    0.9341    5.5255 C   0  0  0  0  0  4           0  0  0
    1.7758    2.5138    0.0457 C   0  0  0  0  0  4           0  0  0
    1.1999    4.2639   -1.4158 C   0  0  0  0  0  4           0  0  0
    0.0000    0.0000    0.0000 C   0  0  0  0  0  4           0  0  0
    1.7769   -2.5198   -0.0285 C   0  0  0  0  0  4           0  0  0
    2.5449   -3.3883   -1.0244 C   0  0  0  0  0  4           0  0  0
    2.0744   -4.8419   -1.0874 C   0  0  0  0  0  4           0  0  0
    2.8608   -5.6753   -2.0882 C   0  0  0  0  0  4           0  0  0
  1 12  1  0     0  0
  2 13  1  0     0  0
  3 14  1  0     0  0
  4 15  1  0     0  0
  5 16  1  0     0  0
  6 17  1  0     0  0
  6 28  1  0     0  0
  7 27  2  0     0  0
  8 29  1  0     0  0
  8 30  1  0     0  0
  9 27  1  0     0  0
 10 18  1  0     0  0
 10 19  1  0     0  0
 10 31  1  0     0  0
 11 12  1  0     0  0
 11 18  2  0     0  0
 12 19  2  0     0  0
 13 14  2  0     0  0
 13 15  1  0     0  0
 14 16  1  0     0  0
 15 20  2  0     0  0
 16 21  2  0     0  0
 17 23  2  0     0  0
 17 24  1  0     0  0
 18 32  1  0     0  0
 19 29  1  0     0  0
 20 21  1  0     0  0
 20 27  1  0     0  0
 21 28  1  0     0  0
 22 25  2  0     0  0
 22 26  1  0     0  0
 22 31  1  0     0  0
 23 25  1  0     0  0
 24 26  2  0     0  0
 32 33  1  0     0  0
 33 34  1  0     0  0
 34 35  1  0     0  0
M  END
> <standard_type>
pIC50

> <# Confs.>
25

> <canonical_smiles>
ClC(N=C1CCCC)=C(COC)N1CC2=CC=C(OCC3=C(F)C(F)=C(F)C(F)=C3C(O)=O)C=C2

> <standard_relation>
=

> <Publication_ID>
nan

> <predicted_activity_value>
5.552841968657781

> <actual_activity_value>
5.920818753952375

> <Compound>
16

> <standard_units>
nM

> hash
2111710999732551678

$$$$
16_
XXILIB    08252103443D 0   0.00000     0.00000

 35 37  0     1  0            999 V2000
    5.0043    1.4905    0.0959 Cl  0  0  0  0  0  1           0  0  0
   -4.7327    0.5922   10.9290 F   0  0  0  0  0  1           0  0  0
   -6.5813    0.7081    8.9302 F   0  0  0  0  0  1           0  0  0
   -2.0816    0.6443   10.3370 F   0  0  0  0  0  1           0  0  0
   -5.7993    0.8756    6.3474 F   0  0  0  0  0  1           0  0  0
   -2.0636   -0.0150    5.2704 O   0  0  0  0  0  2           0  0  0
   -0.3328   -0.0619    8.0706 O   0  0  0  0  0  2           0  0  0
    1.6652    2.9245   -1.3110 O   0  0  0  0  0  2           0  0  0
   -0.7917    1.9437    7.0890 O   0  0  0  0  0  2           0  0  0
    1.4523   -0.0000   -0.0000 N   0  0  0  0  0  3           0  0  0
    3.5375   -0.7648    0.0278 N   0  0  0  0  0  3           0  0  0
    3.5487    0.6053    0.0496 C   0  0  0  0  0  4           0  0  0
   -4.3352    0.6645    9.6523 C   0  0  0  0  0  4           0  0  0
   -5.2747    0.7230    8.6351 C   0  0  0  0  0  4           0  0  0
   -2.9830    0.6884    9.3455 C   0  0  0  0  0  4           0  0  0
   -4.8646    0.8046    7.3074 C   0  0  0  0  0  4           0  0  0
   -1.5834   -0.0306    3.9912 C   0  0  0  0  0  4           0  0  0
    2.2670   -1.1150    0.0000 C   0  0  0  0  0  4           0  0  0
    2.2644    1.1161    0.0329 C   0  0  0  0  0  4           0  0  0
   -2.5693    0.7614    8.0125 C   0  0  0  0  0  4           0  0  0
   -3.5050    0.8187    6.9647 C   0  0  0  0  0  4           0  0  0
   -0.5423   -0.0000    1.3965 C   0  0  0  0  0  4           0  0  0
   -2.1117    0.8486    3.0467 C   0  0  0  0  0  4           0  0  0
   -0.5295   -0.8815    3.6613 C   0  0  0  0  0  4           0  0  0
   -1.5971    0.8553    1.7498 C   0  0  0  0  0  4           0  0  0
   -0.0172   -0.8706    2.3634 C   0  0  0  0  0  4           0  0  0
   -1.1219    0.8081    7.7435 C   0  0  0  0  0  4           0  0  0
   -3.0967    0.9341    5.5255 C   0  0  0  0  0  4           0  0  0
    1.7758    2.5138    0.0457 C   0  0  0  0  0  4           0  0  0
    1.1999    4.2639   -1.4158 C   0  0  0  0  0  4           0  0  0
    0.0000    0.0000    0.0000 C   0  0  0  0  0  4           0  0  0
    1.7769   -2.5198   -0.0285 C   0  0  0  0  0  4           0  0  0
    2.5075   -3.4157    0.9715 C   0  0  0  0  0  4           0  0  0
    2.0356   -4.8703    0.9768 C   0  0  0  0  0  4           0  0  0
    2.7844   -5.7312    1.9832 C   0  0  0  0  0  4           0  0  0
  1 12  1  0     0  0
  2 13  1  0     0  0
  3 14  1  0     0  0
  4 15  1  0     0  0
  5 16  1  0     0  0
  6 17  1  0     0  0
  6 28  1  0     0  0
  7 27  2  0     0  0
  8 29  1  0     0  0
  8 30  1  0     0  0
  9 27  1  0     0  0
 10 18  1  0     0  0
 10 19  1  0     0  0
 10 31  1  0     0  0
 11 12  1  0     0  0
 11 18  2  0     0  0
 12 19  2  0     0  0
 13 14  2  0     0  0
 13 15  1  0     0  0
 14 16  1  0     0  0
 15 20  2  0     0  0
 16 21  2  0     0  0
 17 23  2  0     0  0
 17 24  1  0     0  0
 18 32  1  0     0  0
 19 29  1  0     0  0
 20 21  1  0     0  0
 20 27  1  0     0  0
 21 28  1  0     0  0
 22 25  2  0     0  0
 22 26  1  0     0  0
 22 31  1  0     0  0
 23 25  1  0     0  0
 24 26  2  0     0  0
 32 33  1  0     0  0
 33 34  1  0     0  0
 34 35  1  0     0  0
M  END
> <standard_type>
pIC50

> <# Confs.>
25

> <canonical_smiles>
ClC(N=C1CCCC)=C(COC)N1CC2=CC=C(OCC3=C(F)C(F)=C(F)C(F)=C3C(O)=O)C=C2

> <standard_relation>
=

> <Publication_ID>
nan

> <predicted_activity_value>
5.552841968657781

> <actual_activity_value>
5.920818753952375

> <Compound>
16

> <standard_units>
nM

> hash
2111710999732551678

$$$$
16_
XXILIB    08252103443D 0   0.00000     0.00000

 35 37  0     1  0            999 V2000
    5.0043   -1.4905   -0.0959 Cl  0  0  0  0  0  1           0  0  0
   -4.5218   -0.6097   10.9921 F   0  0  0  0  0  1           0  0  0
   -5.6016   -2.4031    9.2477 F   0  0  0  0  0  1           0  0  0
   -2.3658    0.8731   10.2606 F   0  0  0  0  0  1           0  0  0
   -4.5429   -2.7242    6.7806 F   0  0  0  0  0  1           0  0  0
   -2.0287   -0.0005    5.2840 O   0  0  0  0  0  2           0  0  0
   -1.1857    1.8753    7.7390 O   0  0  0  0  0  2           0  0  0
    1.6652   -2.9245    1.3110 O   0  0  0  0  0  2           0  0  0
   -0.0849   -0.1053    7.4895 O   0  0  0  0  0  2           0  0  0
    1.4523   -0.0000    0.0000 N   0  0  0  0  0  3           0  0  0
    3.5375    0.7648   -0.0278 N   0  0  0  0  0  3           0  0  0
    3.5487   -0.6053   -0.0496 C   0  0  0  0  0  4           0  0  0
   -3.9837   -0.7688    9.7761 C   0  0  0  0  0  4           0  0  0
   -4.5320   -1.6810    8.8886 C   0  0  0  0  0  4           0  0  0
   -2.8814   -0.0162    9.3999 C   0  0  0  0  0  4           0  0  0
   -3.9788   -1.8442    7.6216 C   0  0  0  0  0  4           0  0  0
   -1.5135   -0.0005    4.0183 C   0  0  0  0  0  4           0  0  0
    2.2670    1.1150    0.0000 C   0  0  0  0  0  4           0  0  0
    2.2644   -1.1161   -0.0329 C   0  0  0  0  0  4           0  0  0
   -2.3193   -0.1848    8.1315 C   0  0  0  0  0  4           0  0  0
   -2.8574   -1.1065    7.2162 C   0  0  0  0  0  4           0  0  0
   -0.5423   -0.0000    1.3965 C   0  0  0  0  0  4           0  0  0
   -1.2936   -1.2121    3.3644 C   0  0  0  0  0  4           0  0  0
   -1.2721    1.2115    3.3729 C   0  0  0  0  0  4           0  0  0
   -0.7997   -1.2096    2.0594 C   0  0  0  0  0  4           0  0  0
   -0.7793    1.2092    2.0675 C   0  0  0  0  0  4           0  0  0
   -1.1645    0.6567    7.7738 C   0  0  0  0  0  4           0  0  0
   -2.3018   -1.2873    5.8342 C   0  0  0  0  0  4           0  0  0
    1.7758   -2.5138   -0.0457 C   0  0  0  0  0  4           0  0  0
    1.1999   -4.2639    1.4158 C   0  0  0  0  0  4           0  0  0
    0.0000    0.0000    0.0000 C   0  0  0  0  0  4           0  0  0
    1.7769    2.5198    0.0285 C   0  0  0  0  0  4           0  0  0
    2.5075    3.4157   -0.9715 C   0  0  0  0  0  4           0  0  0
    2.0356    4.8703   -0.9768 C   0  0  0  0  0  4           0  0  0
    2.7844    5.7312   -1.9832 C   0  0  0  0  0  4           0  0  0
  1 12  1  0     0  0
  2 13  1  0     0  0
  3 14  1  0     0  0
  4 15  1  0     0  0
  5 16  1  0     0  0
  6 17  1  0     0  0
  6 28  1  0     0  0
  7 27  2  0     0  0
  8 29  1  0     0  0
  8 30  1  0     0  0
  9 27  1  0     0  0
 10 18  1  0     0  0
 10 19  1  0     0  0
 10 31  1  0     0  0
 11 12  1  0     0  0
 11 18  2  0     0  0
 12 19  2  0     0  0
 13 14  2  0     0  0
 13 15  1  0     0  0
 14 16  1  0     0  0
 15 20  2  0     0  0
 16 21  2  0     0  0
 17 23  2  0     0  0
 17 24  1  0     0  0
 18 32  1  0     0  0
 19 29  1  0     0  0
 20 21  1  0     0  0
 20 27  1  0     0  0
 21 28  1  0     0  0
 22 25  2  0     0  0
 22 26  1  0     0  0
 22 31  1  0     0  0
 23 25  1  0     0  0
 24 26  2  0     0  0
 32 33  1  0     0  0
 33 34  1  0     0  0
 34 35  1  0     0  0
M  END
> <standard_type>
pIC50

> <# Confs.>
25

> <canonical_smiles>
ClC(N=C1CCCC)=C(COC)N1CC2=CC=C(OCC3=C(F)C(F)=C(F)C(F)=C3C(O)=O)C=C2

> <standard_relation>
=

> <Publication_ID>
nan

> <predicted_activity_value>
5.552841968657781

> <actual_activity_value>
5.920818753952375

> <Compound>
16

> <standard_units>
nM

> hash
2111710999732551678

$$$$
15_
XXILIB    08252103443D 0   0.00000     0.00000

 38 40  0     1  0            999 V2000
    5.0074   -1.4914   -0.0122 Cl  0  0  0  0  0  1           0  0  0
   -4.2893   -0.0557   11.2738 F   0  0  0  0  0  1           0  0  0
   -3.4686   -2.4815   10.3407 F   0  0  0  0  0  1           0  0  0
   -4.5209    2.0567    9.5808 F   0  0  0  0  0  1           0  0  0
   -2.8768   -2.8099    7.7099 F   0  0  0  0  0  1           0  0  0
   -3.0642    2.6759    6.6238 O   0  0  0  0  0  2           0  0  0
    1.3203   -2.3060   -2.3498 O   0  0  0  0  0  2           0  0  0
   -3.6966   -1.5750    5.1963 O   0  0  0  0  0  2           0  0  0
    1.8453   -4.3643   -1.4510 O   0  0  0  0  0  2           0  0  0
   -5.1977    1.9265    6.3357 O   0  0  0  0  0  2           0  0  0
    1.4523   -0.0000   -0.0000 N   0  0  0  0  0  3           0  0  0
    3.5393    0.7630   -0.0025 N   0  0  0  0  0  3           0  0  0
   -2.0480    0.0462    5.3415 N   0  0  0  0  0  3           0  0  0
    3.5500   -0.6068   -0.0019 C   0  0  0  0  0  4           0  0  0
   -3.9976   -0.2085    9.9755 C   0  0  0  0  0  4           0  0  0
   -3.5795   -1.4448    9.4997 C   0  0  0  0  0  4           0  0  0
   -4.1145    0.8703    9.1070 C   0  0  0  0  0  4           0  0  0
   -3.2792   -1.6102    8.1524 C   0  0  0  0  0  4           0  0  0
    2.2690    1.1150    0.0000 C   0  0  0  0  0  4           0  0  0
    2.2653   -1.1171    0.0044 C   0  0  0  0  0  4           0  0  0
   -1.5748    0.0102    4.0154 C   0  0  0  0  0  4           0  0  0
   -3.8102    0.7139    7.7542 C   0  0  0  0  0  4           0  0  0
   -3.3998   -0.5340    7.2723 C   0  0  0  0  0  4           0  0  0
   -0.5425    0.0000    1.3966 C   0  0  0  0  0  4           0  0  0
   -2.1092   -0.8512    3.0518 C   0  0  0  0  0  4           0  0  0
   -0.5305    0.8717    3.6644 C   0  0  0  0  0  4           0  0  0
   -1.5959   -0.8533    1.7517 C   0  0  0  0  0  4           0  0  0
   -0.0204    0.8683    2.3639 C   0  0  0  0  0  4           0  0  0
   -3.9522    1.8739    6.8581 C   0  0  0  0  0  4           0  0  0
    1.6067   -3.0240   -1.3996 C   0  0  0  0  0  4           0  0  0
   -3.0672   -0.7396    5.8422 C   0  0  0  0  0  4           0  0  0
    1.7436   -4.9561   -2.7500 C   0  0  0  0  0  4           0  0  0
    0.0000    0.0000    0.0000 C   0  0  0  0  0  4           0  0  0
    1.7865    2.5211   -0.0017 C   0  0  0  0  0  4           0  0  0
    1.7775   -2.5193    0.0058 C   0  0  0  0  0  4           0  0  0
    2.5423    3.3936   -0.9988 C   0  0  0  0  0  4           0  0  0
    2.4340    2.9263   -2.4506 C   0  0  0  0  0  4           0  0  0
    3.1988    3.8184   -3.4171 C   0  0  0  0  0  4           0  0  0
  1 14  1  0     0  0
  2 15  1  0     0  0
  3 16  1  0     0  0
  4 17  1  0     0  0
  5 18  1  0     0  0
  6 29  2  0     0  0
  7 30  2  0     0  0
  8 31  2  0     0  0
  9 30  1  0     0  0
  9 32  1  0     0  0
 10 29  1  0     0  0
 11 19  1  0     0  0
 11 20  1  0     0  0
 11 33  1  0     0  0
 12 14  1  0     0  0
 12 19  2  0     0  0
 13 21  1  0     0  0
 13 31  1  0     0  0
 14 20  2  0     0  0
 15 16  2  0     0  0
 15 17  1  0     0  0
 16 18  1  0     0  0
 17 22  2  0     0  0
 18 23  2  0     0  0
 19 34  1  0     0  0
 20 35  1  0     0  0
 21 25  2  0     0  0
 21 26  1  0     0  0
 22 23  1  0     0  0
 22 29  1  0     0  0
 23 31  1  0     0  0
 24 27  2  0     0  0
 24 28  1  0     0  0
 24 33  1  0     0  0
 25 27  1  0     0  0
 26 28  2  0     0  0
 30 35  1  0     0  0
 34 36  1  0     0  0
 36 37  1  0     0  0
 37 38  1  0     0  0
M  END
> <standard_type>
pIC50

> <# Confs.>
25

> <canonical_smiles>
ClC(N=C1CCCC)=C(CC(OC)=O)N1CC2=CC=C(NC(C3=C(F)C(F)=C(F)C(F)=C3C(O)=O)=O)C=C2

> <standard_relation>
=

> <Publication_ID>
nan

> <predicted_activity_value>
5.698970004336019

> <actual_activity_value>
6.102372908709558

> <Compound>
15

> <standard_units>
nM

> hash
7635010759574249356

$$$$
15_
XXILIB    08252103443D 0   0.00000     0.00000

 38 40  0     1  0            999 V2000
    5.0074   -1.4914   -0.0122 Cl  0  0  0  0  0  1           0  0  0
   -4.4243    0.0510   11.2271 F   0  0  0  0  0  1           0  0  0
   -6.2709    0.4640    9.2655 F   0  0  0  0  0  1           0  0  0
   -1.9071   -0.7508   10.5924 F   0  0  0  0  0  1           0  0  0
   -5.6114    0.0798    6.6584 F   0  0  0  0  0  1           0  0  0
   -0.1570   -0.4206    7.7449 O   0  0  0  0  0  2           0  0  0
    1.3203   -2.3060   -2.3498 O   0  0  0  0  0  2           0  0  0
   -3.6966   -1.5750    5.1963 O   0  0  0  0  0  2           0  0  0
    1.8453   -4.3643   -1.4510 O   0  0  0  0  0  2           0  0  0
   -0.9902   -2.5323    7.9524 O   0  0  0  0  0  2           0  0  0
    1.4523   -0.0000   -0.0000 N   0  0  0  0  0  3           0  0  0
    3.5393    0.7630   -0.0025 N   0  0  0  0  0  3           0  0  0
   -2.0480    0.0462    5.3415 N   0  0  0  0  0  3           0  0  0
    3.5500   -0.6068   -0.0019 C   0  0  0  0  0  4           0  0  0
   -4.0913   -0.1426    9.9442 C   0  0  0  0  0  4           0  0  0
   -5.0323    0.0679    8.9443 C   0  0  0  0  0  4           0  0  0
   -2.8046   -0.5534    9.6163 C   0  0  0  0  0  4           0  0  0
   -4.6911   -0.1277    7.6109 C   0  0  0  0  0  4           0  0  0
    2.2690    1.1150    0.0000 C   0  0  0  0  0  4           0  0  0
    2.2653   -1.1171    0.0044 C   0  0  0  0  0  4           0  0  0
   -1.5748    0.0102    4.0154 C   0  0  0  0  0  4           0  0  0
   -2.4556   -0.7568    8.2806 C   0  0  0  0  0  4           0  0  0
   -3.3998   -0.5340    7.2723 C   0  0  0  0  0  4           0  0  0
   -0.5425    0.0000    1.3966 C   0  0  0  0  0  4           0  0  0
   -2.1092   -0.8512    3.0518 C   0  0  0  0  0  4           0  0  0
   -0.5305    0.8717    3.6644 C   0  0  0  0  0  4           0  0  0
   -1.5959   -0.8533    1.7517 C   0  0  0  0  0  4           0  0  0
   -0.0204    0.8683    2.3639 C   0  0  0  0  0  4           0  0  0
   -1.0820   -1.1838    7.9652 C   0  0  0  0  0  4           0  0  0
    1.6067   -3.0240   -1.3996 C   0  0  0  0  0  4           0  0  0
   -3.0672   -0.7396    5.8422 C   0  0  0  0  0  4           0  0  0
    1.7436   -4.9561   -2.7500 C   0  0  0  0  0  4           0  0  0
    0.0000    0.0000    0.0000 C   0  0  0  0  0  4           0  0  0
    1.7865    2.5211   -0.0017 C   0  0  0  0  0  4           0  0  0
    1.7775   -2.5193    0.0058 C   0  0  0  0  0  4           0  0  0
    2.5423    3.3936   -0.9988 C   0  0  0  0  0  4           0  0  0
    2.4340    2.9263   -2.4506 C   0  0  0  0  0  4           0  0  0
    3.1988    3.8184   -3.4171 C   0  0  0  0  0  4           0  0  0
  1 14  1  0     0  0
  2 15  1  0     0  0
  3 16  1  0     0  0
  4 17  1  0     0  0
  5 18  1  0     0  0
  6 29  2  0     0  0
  7 30  2  0     0  0
  8 31  2  0     0  0
  9 30  1  0     0  0
  9 32  1  0     0  0
 10 29  1  0     0  0
 11 19  1  0     0  0
 11 20  1  0     0  0
 11 33  1  0     0  0
 12 14  1  0     0  0
 12 19  2  0     0  0
 13 21  1  0     0  0
 13 31  1  0     0  0
 14 20  2  0     0  0
 15 16  2  0     0  0
 15 17  1  0     0  0
 16 18  1  0     0  0
 17 22  2  0     0  0
 18 23  2  0     0  0
 19 34  1  0     0  0
 20 35  1  0     0  0
 21 25  2  0     0  0
 21 26  1  0     0  0
 22 23  1  0     0  0
 22 29  1  0     0  0
 23 31  1  0     0  0
 24 27  2  0     0  0
 24 28  1  0     0  0
 24 33  1  0     0  0
 25 27  1  0     0  0
 26 28  2  0     0  0
 30 35  1  0     0  0
 34 36  1  0     0  0
 36 37  1  0     0  0
 37 38  1  0     0  0
M  END
> <standard_type>
pIC50

> <# Confs.>
25

> <canonical_smiles>
ClC(N=C1CCCC)=C(CC(OC)=O)N1CC2=CC=C(NC(C3=C(F)C(F)=C(F)C(F)=C3C(O)=O)=O)C=C2

> <standard_relation>
=

> <Publication_ID>
nan

> <predicted_activity_value>
5.698970004336019

> <actual_activity_value>
6.102372908709558

> <Compound>
15

> <standard_units>
nM

> hash
7635010759574249356

$$$$
15_
XXILIB    08252103443D 0   0.00000     0.00000

 38 40  0     1  0            999 V2000
    5.0074   -1.4914   -0.0122 Cl  0  0  0  0  0  1           0  0  0
   -4.2893   -0.0557   11.2738 F   0  0  0  0  0  1           0  0  0
   -3.4686   -2.4815   10.3407 F   0  0  0  0  0  1           0  0  0
   -4.5209    2.0567    9.5808 F   0  0  0  0  0  1           0  0  0
   -2.8768   -2.8099    7.7099 F   0  0  0  0  0  1           0  0  0
   -3.0642    2.6759    6.6238 O   0  0  0  0  0  2           0  0  0
    0.8532   -2.5127   -2.2188 O   0  0  0  0  0  2           0  0  0
   -3.6966   -1.5750    5.1963 O   0  0  0  0  0  2           0  0  0
    2.4242   -4.0915   -1.6193 O   0  0  0  0  0  2           0  0  0
   -5.1977    1.9265    6.3357 O   0  0  0  0  0  2           0  0  0
    1.4523   -0.0000   -0.0000 N   0  0  0  0  0  3           0  0  0
    3.5393    0.7630   -0.0025 N   0  0  0  0  0  3           0  0  0
   -2.0480    0.0462    5.3415 N   0  0  0  0  0  3           0  0  0
    3.5500   -0.6068   -0.0019 C   0  0  0  0  0  4           0  0  0
   -3.9976   -0.2085    9.9755 C   0  0  0  0  0  4           0  0  0
   -3.5795   -1.4448    9.4997 C   0  0  0  0  0  4           0  0  0
   -4.1145    0.8703    9.1070 C   0  0  0  0  0  4           0  0  0
   -3.2792   -1.6102    8.1524 C   0  0  0  0  0  4           0  0  0
    2.2690    1.1150    0.0000 C   0  0  0  0  0  4           0  0  0
    2.2653   -1.1171    0.0044 C   0  0  0  0  0  4           0  0  0
   -1.5748    0.0102    4.0154 C   0  0  0  0  0  4           0  0  0
   -3.8102    0.7139    7.7542 C   0  0  0  0  0  4           0  0  0
   -3.3998   -0.5340    7.2723 C   0  0  0  0  0  4           0  0  0
   -0.5425    0.0000    1.3966 C   0  0  0  0  0  4           0  0  0
   -2.1092   -0.8512    3.0518 C   0  0  0  0  0  4           0  0  0
   -0.5305    0.8717    3.6644 C   0  0  0  0  0  4           0  0  0
   -1.5959   -0.8533    1.7517 C   0  0  0  0  0  4           0  0  0
   -0.0204    0.8683    2.3639 C   0  0  0  0  0  4           0  0  0
   -3.9522    1.8739    6.8581 C   0  0  0  0  0  4           0  0  0
    1.6067   -3.0240   -1.3996 C   0  0  0  0  0  4           0  0  0
   -3.0672   -0.7396    5.8422 C   0  0  0  0  0  4           0  0  0
    2.3730   -4.6418   -2.9394 C   0  0  0  0  0  4           0  0  0
    0.0000    0.0000    0.0000 C   0  0  0  0  0  4           0  0  0
    1.7865    2.5211   -0.0017 C   0  0  0  0  0  4           0  0  0
    1.7775   -2.5193    0.0058 C   0  0  0  0  0  4           0  0  0
    1.5995    3.0696   -1.4127 C   0  0  0  0  0  4           0  0  0
    1.1036    4.5150   -1.4641 C   0  0  0  0  0  4           0  0  0
    0.9283    5.0294   -2.8851 C   0  0  0  0  0  4           0  0  0
  1 14  1  0     0  0
  2 15  1  0     0  0
  3 16  1  0     0  0
  4 17  1  0     0  0
  5 18  1  0     0  0
  6 29  2  0     0  0
  7 30  2  0     0  0
  8 31  2  0     0  0
  9 30  1  0     0  0
  9 32  1  0     0  0
 10 29  1  0     0  0
 11 19  1  0     0  0
 11 20  1  0     0  0
 11 33  1  0     0  0
 12 14  1  0     0  0
 12 19  2  0     0  0
 13 21  1  0     0  0
 13 31  1  0     0  0
 14 20  2  0     0  0
 15 16  2  0     0  0
 15 17  1  0     0  0
 16 18  1  0     0  0
 17 22  2  0     0  0
 18 23  2  0     0  0
 19 34  1  0     0  0
 20 35  1  0     0  0
 21 25  2  0     0  0
 21 26  1  0     0  0
 22 23  1  0     0  0
 22 29  1  0     0  0
 23 31  1  0     0  0
 24 27  2  0     0  0
 24 28  1  0     0  0
 24 33  1  0     0  0
 25 27  1  0     0  0
 26 28  2  0     0  0
 30 35  1  0     0  0
 34 36  1  0     0  0
 36 37  1  0     0  0
 37 38  1  0     0  0
M  END
> <standard_type>
pIC50

> <# Confs.>
25

> <canonical_smiles>
ClC(N=C1CCCC)=C(CC(OC)=O)N1CC2=CC=C(NC(C3=C(F)C(F)=C(F)C(F)=C3C(O)=O)=O)C=C2

> <standard_relation>
=

> <Publication_ID>
nan

> <predicted_activity_value>
5.698970004336019

> <actual_activity_value>
6.102372908709558

> <Compound>
15

> <standard_units>
nM

> hash
7635010759574249356

$$$$
15_
XXILIB    08252103443D 0   0.00000     0.00000

 38 40  0     1  0            999 V2000
    5.0074   -1.4914   -0.0122 Cl  0  0  0  0  0  1           0  0  0
   -4.4243    0.0510   11.2271 F   0  0  0  0  0  1           0  0  0
   -6.2709    0.4640    9.2655 F   0  0  0  0  0  1           0  0  0
   -1.9071   -0.7508   10.5924 F   0  0  0  0  0  1           0  0  0
   -5.6114    0.0798    6.6584 F   0  0  0  0  0  1           0  0  0
   -0.1570   -0.4206    7.7449 O   0  0  0  0  0  2           0  0  0
    0.8532   -2.5127   -2.2188 O   0  0  0  0  0  2           0  0  0
   -3.6966   -1.5750    5.1963 O   0  0  0  0  0  2           0  0  0
    2.4242   -4.0915   -1.6193 O   0  0  0  0  0  2           0  0  0
   -0.9902   -2.5323    7.9524 O   0  0  0  0  0  2           0  0  0
    1.4523   -0.0000   -0.0000 N   0  0  0  0  0  3           0  0  0
    3.5393    0.7630   -0.0025 N   0  0  0  0  0  3           0  0  0
   -2.0480    0.0462    5.3415 N   0  0  0  0  0  3           0  0  0
    3.5500   -0.6068   -0.0019 C   0  0  0  0  0  4           0  0  0
   -4.0913   -0.1426    9.9442 C   0  0  0  0  0  4           0  0  0
   -5.0323    0.0679    8.9443 C   0  0  0  0  0  4           0  0  0
   -2.8046   -0.5534    9.6163 C   0  0  0  0  0  4           0  0  0
   -4.6911   -0.1277    7.6109 C   0  0  0  0  0  4           0  0  0
    2.2690    1.1150    0.0000 C   0  0  0  0  0  4           0  0  0
    2.2653   -1.1171    0.0044 C   0  0  0  0  0  4           0  0  0
   -1.5748    0.0102    4.0154 C   0  0  0  0  0  4           0  0  0
   -2.4556   -0.7568    8.2806 C   0  0  0  0  0  4           0  0  0
   -3.3998   -0.5340    7.2723 C   0  0  0  0  0  4           0  0  0
   -0.5425    0.0000    1.3966 C   0  0  0  0  0  4           0  0  0
   -2.1092   -0.8512    3.0518 C   0  0  0  0  0  4           0  0  0
   -0.5305    0.8717    3.6644 C   0  0  0  0  0  4           0  0  0
   -1.5959   -0.8533    1.7517 C   0  0  0  0  0  4           0  0  0
   -0.0204    0.8683    2.3639 C   0  0  0  0  0  4           0  0  0
   -1.0820   -1.1838    7.9652 C   0  0  0  0  0  4           0  0  0
    1.6067   -3.0240   -1.3996 C   0  0  0  0  0  4           0  0  0
   -3.0672   -0.7396    5.8422 C   0  0  0  0  0  4           0  0  0
    2.3730   -4.6418   -2.9394 C   0  0  0  0  0  4           0  0  0
    0.0000    0.0000    0.0000 C   0  0  0  0  0  4           0  0  0
    1.7865    2.5211   -0.0017 C   0  0  0  0  0  4           0  0  0
    1.7775   -2.5193    0.0058 C   0  0  0  0  0  4           0  0  0
    1.5995    3.0696   -1.4127 C   0  0  0  0  0  4           0  0  0
    1.1036    4.5150   -1.4641 C   0  0  0  0  0  4           0  0  0
    0.9283    5.0294   -2.8851 C   0  0  0  0  0  4           0  0  0
  1 14  1  0     0  0
  2 15  1  0     0  0
  3 16  1  0     0  0
  4 17  1  0     0  0
  5 18  1  0     0  0
  6 29  2  0     0  0
  7 30  2  0     0  0
  8 31  2  0     0  0
  9 30  1  0     0  0
  9 32  1  0     0  0
 10 29  1  0     0  0
 11 19  1  0     0  0
 11 20  1  0     0  0
 11 33  1  0     0  0
 12 14  1  0     0  0
 12 19  2  0     0  0
 13 21  1  0     0  0
 13 31  1  0     0  0
 14 20  2  0     0  0
 15 16  2  0     0  0
 15 17  1  0     0  0
 16 18  1  0     0  0
 17 22  2  0     0  0
 18 23  2  0     0  0
 19 34  1  0     0  0
 20 35  1  0     0  0
 21 25  2  0     0  0
 21 26  1  0     0  0
 22 23  1  0     0  0
 22 29  1  0     0  0
 23 31  1  0     0  0
 24 27  2  0     0  0
 24 28  1  0     0  0
 24 33  1  0     0  0
 25 27  1  0     0  0
 26 28  2  0     0  0
 30 35  1  0     0  0
 34 36  1  0     0  0
 36 37  1  0     0  0
 37 38  1  0     0  0
M  END
> <standard_type>
pIC50

> <# Confs.>
25

> <canonical_smiles>
ClC(N=C1CCCC)=C(CC(OC)=O)N1CC2=CC=C(NC(C3=C(F)C(F)=C(F)C(F)=C3C(O)=O)=O)C=C2

> <standard_relation>
=

> <Publication_ID>
nan

> <predicted_activity_value>
5.698970004336019

> <actual_activity_value>
6.102372908709558

> <Compound>
15

> <standard_units>
nM

> hash
7635010759574249356

$$$$
15_
XXILIB    08252103443D 0   0.00000     0.00000

 38 40  0     1  0            999 V2000
    5.0074    1.4914    0.0122 Cl  0  0  0  0  0  1           0  0  0
   -4.4171   -0.0588   11.2299 F   0  0  0  0  0  1           0  0  0
   -4.3821   -2.4904    9.9992 F   0  0  0  0  0  1           0  0  0
   -3.1254    2.0578   10.1191 F   0  0  0  0  0  1           0  0  0
   -3.0575   -2.8196    7.6505 F   0  0  0  0  0  1           0  0  0
   -2.2426    2.6581    6.9347 O   0  0  0  0  0  2           0  0  0
    1.3076    2.2969   -2.3580 O   0  0  0  0  0  2           0  0  0
   -0.7705   -1.5642    6.3330 O   0  0  0  0  0  2           0  0  0
    1.7780    4.3683   -1.4592 O   0  0  0  0  0  2           0  0  0
   -0.4535    1.9565    8.1609 O   0  0  0  0  0  2           0  0  0
    1.4523   -0.0000   -0.0000 N   0  0  0  0  0  3           0  0  0
    3.5393   -0.7630    0.0025 N   0  0  0  0  0  3           0  0  0
   -2.1145    0.0251    5.3156 N   0  0  0  0  0  3           0  0  0
    3.5500    0.6068    0.0019 C   0  0  0  0  0  4           0  0  0
   -3.7599   -0.2128   10.0729 C   0  0  0  0  0  4           0  0  0
   -3.7421   -1.4521    9.4455 C   0  0  0  0  0  4           0  0  0
   -3.0977    0.8677    9.5024 C   0  0  0  0  0  4           0  0  0
   -3.0650   -1.6169    8.2426 C   0  0  0  0  0  4           0  0  0
    2.2690   -1.1150    0.0000 C   0  0  0  0  0  4           0  0  0
    2.2653    1.1171   -0.0044 C   0  0  0  0  0  4           0  0  0
   -1.5713   -0.0140    4.0168 C   0  0  0  0  0  4           0  0  0
   -2.4115    0.7094    8.2978 C   0  0  0  0  0  4           0  0  0
   -2.4026   -0.5358    7.6596 C   0  0  0  0  0  4           0  0  0
   -0.5425    0.0000    1.3966 C   0  0  0  0  0  4           0  0  0
   -0.5131   -0.8610    3.6718 C   0  0  0  0  0  4           0  0  0
   -2.1190    0.8324    3.0474 C   0  0  0  0  0  4           0  0  0
   -0.0051   -0.8533    2.3696 C   0  0  0  0  0  4           0  0  0
   -1.6100    0.8369    1.7464 C   0  0  0  0  0  4           0  0  0
   -1.7269    1.8756    7.7147 C   0  0  0  0  0  4           0  0  0
    1.5991    3.0185   -1.4121 C   0  0  0  0  0  4           0  0  0
   -1.6846   -0.7436    6.3793 C   0  0  0  0  0  4           0  0  0
    1.6014    4.9660   -2.7474 C   0  0  0  0  0  4           0  0  0
    0.0000    0.0000    0.0000 C   0  0  0  0  0  4           0  0  0
    1.7865   -2.5211    0.0017 C   0  0  0  0  0  4           0  0  0
    1.7775    2.5193   -0.0058 C   0  0  0  0  0  4           0  0  0
    2.5423   -3.3936    0.9988 C   0  0  0  0  0  4           0  0  0
    2.0795   -4.8504    1.0356 C   0  0  0  0  0  4           0  0  0
    2.8538   -5.6911    2.0399 C   0  0  0  0  0  4           0  0  0
  1 14  1  0     0  0
  2 15  1  0     0  0
  3 16  1  0     0  0
  4 17  1  0     0  0
  5 18  1  0     0  0
  6 29  2  0     0  0
  7 30  2  0     0  0
  8 31  2  0     0  0
  9 30  1  0     0  0
  9 32  1  0     0  0
 10 29  1  0     0  0
 11 19  1  0     0  0
 11 20  1  0     0  0
 11 33  1  0     0  0
 12 14  1  0     0  0
 12 19  2  0     0  0
 13 21  1  0     0  0
 13 31  1  0     0  0
 14 20  2  0     0  0
 15 16  2  0     0  0
 15 17  1  0     0  0
 16 18  1  0     0  0
 17 22  2  0     0  0
 18 23  2  0     0  0
 19 34  1  0     0  0
 20 35  1  0     0  0
 21 25  2  0     0  0
 21 26  1  0     0  0
 22 23  1  0     0  0
 22 29  1  0     0  0
 23 31  1  0     0  0
 24 27  2  0     0  0
 24 28  1  0     0  0
 24 33  1  0     0  0
 25 27  1  0     0  0
 26 28  2  0     0  0
 30 35  1  0     0  0
 34 36  1  0     0  0
 36 37  1  0     0  0
 37 38  1  0     0  0
M  END
> <standard_type>
pIC50

> <# Confs.>
25

> <canonical_smiles>
ClC(N=C1CCCC)=C(CC(OC)=O)N1CC2=CC=C(NC(C3=C(F)C(F)=C(F)C(F)=C3C(O)=O)=O)C=C2

> <standard_relation>
=

> <Publication_ID>
nan

> <predicted_activity_value>
5.698970004336019

> <actual_activity_value>
6.102372908709558

> <Compound>
15

> <standard_units>
nM

> hash
7635010759574249356

$$$$
15_
XXILIB    08252103443D 0   0.00000     0.00000

 38 40  0     1  0            999 V2000
    5.0074    1.4914    0.0122 Cl  0  0  0  0  0  1           0  0  0
   -4.4243    0.0510   11.2271 F   0  0  0  0  0  1           0  0  0
   -6.2709    0.4640    9.2655 F   0  0  0  0  0  1           0  0  0
   -1.9071   -0.7508   10.5924 F   0  0  0  0  0  1           0  0  0
   -5.6114    0.0798    6.6584 F   0  0  0  0  0  1           0  0  0
   -0.1570   -0.4206    7.7449 O   0  0  0  0  0  2           0  0  0
    1.3076    2.2969   -2.3580 O   0  0  0  0  0  2           0  0  0
   -3.6966   -1.5750    5.1963 O   0  0  0  0  0  2           0  0  0
    1.7780    4.3683   -1.4592 O   0  0  0  0  0  2           0  0  0
   -0.9902   -2.5323    7.9524 O   0  0  0  0  0  2           0  0  0
    1.4523   -0.0000   -0.0000 N   0  0  0  0  0  3           0  0  0
    3.5393   -0.7630    0.0025 N   0  0  0  0  0  3           0  0  0
   -2.0480    0.0462    5.3415 N   0  0  0  0  0  3           0  0  0
    3.5500    0.6068    0.0019 C   0  0  0  0  0  4           0  0  0
   -4.0913   -0.1426    9.9442 C   0  0  0  0  0  4           0  0  0
   -5.0323    0.0679    8.9443 C   0  0  0  0  0  4           0  0  0
   -2.8046   -0.5534    9.6163 C   0  0  0  0  0  4           0  0  0
   -4.6911   -0.1277    7.6109 C   0  0  0  0  0  4           0  0  0
    2.2690   -1.1150    0.0000 C   0  0  0  0  0  4           0  0  0
    2.2653    1.1171   -0.0044 C   0  0  0  0  0  4           0  0  0
   -1.5748    0.0102    4.0154 C   0  0  0  0  0  4           0  0  0
   -2.4556   -0.7568    8.2806 C   0  0  0  0  0  4           0  0  0
   -3.3998   -0.5340    7.2723 C   0  0  0  0  0  4           0  0  0
   -0.5425    0.0000    1.3966 C   0  0  0  0  0  4           0  0  0
   -2.1092   -0.8512    3.0518 C   0  0  0  0  0  4           0  0  0
   -0.5305    0.8717    3.6644 C   0  0  0  0  0  4           0  0  0
   -1.5959   -0.8533    1.7517 C   0  0  0  0  0  4           0  0  0
   -0.0204    0.8683    2.3639 C   0  0  0  0  0  4           0  0  0
   -1.0820   -1.1838    7.9652 C   0  0  0  0  0  4           0  0  0
    1.5991    3.0185   -1.4121 C   0  0  0  0  0  4           0  0  0
   -3.0672   -0.7396    5.8422 C   0  0  0  0  0  4           0  0  0
    1.6014    4.9660   -2.7474 C   0  0  0  0  0  4           0  0  0
    0.0000    0.0000    0.0000 C   0  0  0  0  0  4           0  0  0
    1.7865   -2.5211    0.0017 C   0  0  0  0  0  4           0  0  0
    1.7775    2.5193   -0.0058 C   0  0  0  0  0  4           0  0  0
    1.5995   -3.0696    1.4127 C   0  0  0  0  0  4           0  0  0
    1.1036   -4.5150    1.4641 C   0  0  0  0  0  4           0  0  0
    0.9283   -5.0294    2.8851 C   0  0  0  0  0  4           0  0  0
  1 14  1  0     0  0
  2 15  1  0     0  0
  3 16  1  0     0  0
  4 17  1  0     0  0
  5 18  1  0     0  0
  6 29  2  0     0  0
  7 30  2  0     0  0
  8 31  2  0     0  0
  9 30  1  0     0  0
  9 32  1  0     0  0
 10 29  1  0     0  0
 11 19  1  0     0  0
 11 20  1  0     0  0
 11 33  1  0     0  0
 12 14  1  0     0  0
 12 19  2  0     0  0
 13 21  1  0     0  0
 13 31  1  0     0  0
 14 20  2  0     0  0
 15 16  2  0     0  0
 15 17  1  0     0  0
 16 18  1  0     0  0
 17 22  2  0     0  0
 18 23  2  0     0  0
 19 34  1  0     0  0
 20 35  1  0     0  0
 21 25  2  0     0  0
 21 26  1  0     0  0
 22 23  1  0     0  0
 22 29  1  0     0  0
 23 31  1  0     0  0
 24 27  2  0     0  0
 24 28  1  0     0  0
 24 33  1  0     0  0
 25 27  1  0     0  0
 26 28  2  0     0  0
 30 35  1  0     0  0
 34 36  1  0     0  0
 36 37  1  0     0  0
 37 38  1  0     0  0
M  END
> <standard_type>
pIC50

> <# Confs.>
25

> <canonical_smiles>
ClC(N=C1CCCC)=C(CC(OC)=O)N1CC2=CC=C(NC(C3=C(F)C(F)=C(F)C(F)=C3C(O)=O)=O)C=C2

> <standard_relation>
=

> <Publication_ID>
nan

> <predicted_activity_value>
5.698970004336019

> <actual_activity_value>
6.102372908709558

> <Compound>
15

> <standard_units>
nM

> hash
7635010759574249356

$$$$
15_
XXILIB    08252103443D 0   0.00000     0.00000

 38 40  0     1  0            999 V2000
    5.0074    1.4914    0.0122 Cl  0  0  0  0  0  1           0  0  0
   -4.3157    0.0840   11.2636 F   0  0  0  0  0  1           0  0  0
   -1.6320    0.5111   11.0541 F   0  0  0  0  0  1           0  0  0
   -5.7437   -0.7449    9.1058 F   0  0  0  0  0  1           0  0  0
   -0.3603    0.1102    8.6874 F   0  0  0  0  0  1           0  0  0
   -5.1317   -0.4578    5.8206 O   0  0  0  0  0  2           0  0  0
    1.3076    2.2969   -2.3580 O   0  0  0  0  0  2           0  0  0
   -0.7705   -1.5642    6.3330 O   0  0  0  0  0  2           0  0  0
    1.7780    4.3683   -1.4592 O   0  0  0  0  0  2           0  0  0
   -4.6157   -2.5509    6.5618 O   0  0  0  0  0  2           0  0  0
    1.4523   -0.0000   -0.0000 N   0  0  0  0  0  3           0  0  0
    3.5393   -0.7630    0.0025 N   0  0  0  0  0  3           0  0  0
   -2.1145    0.0251    5.3156 N   0  0  0  0  0  3           0  0  0
    3.5500    0.6068    0.0019 C   0  0  0  0  0  4           0  0  0
   -3.6968   -0.1142   10.0923 C   0  0  0  0  0  4           0  0  0
   -2.3290    0.1033    9.9854 C   0  0  0  0  0  4           0  0  0
   -4.4245   -0.5377    8.9865 C   0  0  0  0  0  4           0  0  0
   -1.6807   -0.1047    8.7734 C   0  0  0  0  0  4           0  0  0
    2.2690   -1.1150    0.0000 C   0  0  0  0  0  4           0  0  0
    2.2653    1.1171   -0.0044 C   0  0  0  0  0  4           0  0  0
   -1.5713   -0.0140    4.0168 C   0  0  0  0  0  4           0  0  0
   -3.7823   -0.7439    7.7650 C   0  0  0  0  0  4           0  0  0
   -2.4026   -0.5358    7.6596 C   0  0  0  0  0  4           0  0  0
   -0.5425    0.0000    1.3966 C   0  0  0  0  0  4           0  0  0
   -0.5131   -0.8610    3.6718 C   0  0  0  0  0  4           0  0  0
   -2.1190    0.8324    3.0474 C   0  0  0  0  0  4           0  0  0
   -0.0051   -0.8533    2.3696 C   0  0  0  0  0  4           0  0  0
   -1.6100    0.8369    1.7464 C   0  0  0  0  0  4           0  0  0
   -4.5797   -1.2007    6.6144 C   0  0  0  0  0  4           0  0  0
    1.5991    3.0185   -1.4121 C   0  0  0  0  0  4           0  0  0
   -1.6846   -0.7436    6.3793 C   0  0  0  0  0  4           0  0  0
    1.6014    4.9660   -2.7474 C   0  0  0  0  0  4           0  0  0
    0.0000    0.0000    0.0000 C   0  0  0  0  0  4           0  0  0
    1.7865   -2.5211    0.0017 C   0  0  0  0  0  4           0  0  0
    1.7775    2.5193   -0.0058 C   0  0  0  0  0  4           0  0  0
    2.5423   -3.3936    0.9988 C   0  0  0  0  0  4           0  0  0
    2.0795   -4.8504    1.0356 C   0  0  0  0  0  4           0  0  0
    2.8538   -5.6911    2.0399 C   0  0  0  0  0  4           0  0  0
  1 14  1  0     0  0
  2 15  1  0     0  0
  3 16  1  0     0  0
  4 17  1  0     0  0
  5 18  1  0     0  0
  6 29  2  0     0  0
  7 30  2  0     0  0
  8 31  2  0     0  0
  9 30  1  0     0  0
  9 32  1  0     0  0
 10 29  1  0     0  0
 11 19  1  0     0  0
 11 20  1  0     0  0
 11 33  1  0     0  0
 12 14  1  0     0  0
 12 19  2  0     0  0
 13 21  1  0     0  0
 13 31  1  0     0  0
 14 20  2  0     0  0
 15 16  2  0     0  0
 15 17  1  0     0  0
 16 18  1  0     0  0
 17 22  2  0     0  0
 18 23  2  0     0  0
 19 34  1  0     0  0
 20 35  1  0     0  0
 21 25  2  0     0  0
 21 26  1  0     0  0
 22 23  1  0     0  0
 22 29  1  0     0  0
 23 31  1  0     0  0
 24 27  2  0     0  0
 24 28  1  0     0  0
 24 33  1  0     0  0
 25 27  1  0     0  0
 26 28  2  0     0  0
 30 35  1  0     0  0
 34 36  1  0     0  0
 36 37  1  0     0  0
 37 38  1  0     0  0
M  END
> <standard_type>
pIC50

> <# Confs.>
25

> <canonical_smiles>
ClC(N=C1CCCC)=C(CC(OC)=O)N1CC2=CC=C(NC(C3=C(F)C(F)=C(F)C(F)=C3C(O)=O)=O)C=C2

> <standard_relation>
=

> <Publication_ID>
nan

> <predicted_activity_value>
5.698970004336019

> <actual_activity_value>
6.102372908709558

> <Compound>
15

> <standard_units>
nM

> hash
7635010759574249356

$$$$
15_
XXILIB    08252103443D 0   0.00000     0.00000

 38 40  0     1  0            999 V2000
    5.0074    1.4914    0.0122 Cl  0  0  0  0  0  1           0  0  0
   -4.2893   -0.0557   11.2738 F   0  0  0  0  0  1           0  0  0
   -3.4686   -2.4815   10.3407 F   0  0  0  0  0  1           0  0  0
   -4.5209    2.0567    9.5808 F   0  0  0  0  0  1           0  0  0
   -2.8768   -2.8099    7.7099 F   0  0  0  0  0  1           0  0  0
   -3.0642    2.6759    6.6238 O   0  0  0  0  0  2           0  0  0
    1.3076    2.2969   -2.3580 O   0  0  0  0  0  2           0  0  0
   -3.6966   -1.5750    5.1963 O   0  0  0  0  0  2           0  0  0
    1.7780    4.3683   -1.4592 O   0  0  0  0  0  2           0  0  0
   -5.1977    1.9265    6.3357 O   0  0  0  0  0  2           0  0  0
    1.4523   -0.0000   -0.0000 N   0  0  0  0  0  3           0  0  0
    3.5393   -0.7630    0.0025 N   0  0  0  0  0  3           0  0  0
   -2.0480    0.0462    5.3415 N   0  0  0  0  0  3           0  0  0
    3.5500    0.6068    0.0019 C   0  0  0  0  0  4           0  0  0
   -3.9976   -0.2085    9.9755 C   0  0  0  0  0  4           0  0  0
   -3.5795   -1.4448    9.4997 C   0  0  0  0  0  4           0  0  0
   -4.1145    0.8703    9.1070 C   0  0  0  0  0  4           0  0  0
   -3.2792   -1.6102    8.1524 C   0  0  0  0  0  4           0  0  0
    2.2690   -1.1150    0.0000 C   0  0  0  0  0  4           0  0  0
    2.2653    1.1171   -0.0044 C   0  0  0  0  0  4           0  0  0
   -1.5748    0.0102    4.0154 C   0  0  0  0  0  4           0  0  0
   -3.8102    0.7139    7.7542 C   0  0  0  0  0  4           0  0  0
   -3.3998   -0.5340    7.2723 C   0  0  0  0  0  4           0  0  0
   -0.5425    0.0000    1.3966 C   0  0  0  0  0  4           0  0  0
   -2.1092   -0.8512    3.0518 C   0  0  0  0  0  4           0  0  0
   -0.5305    0.8717    3.6644 C   0  0  0  0  0  4           0  0  0
   -1.5959   -0.8533    1.7517 C   0  0  0  0  0  4           0  0  0
   -0.0204    0.8683    2.3639 C   0  0  0  0  0  4           0  0  0
   -3.9522    1.8739    6.8581 C   0  0  0  0  0  4           0  0  0
    1.5991    3.0185   -1.4121 C   0  0  0  0  0  4           0  0  0
   -3.0672   -0.7396    5.8422 C   0  0  0  0  0  4           0  0  0
    1.6014    4.9660   -2.7474 C   0  0  0  0  0  4           0  0  0
    0.0000    0.0000    0.0000 C   0  0  0  0  0  4           0  0  0
    1.7865   -2.5211    0.0017 C   0  0  0  0  0  4           0  0  0
    1.7775    2.5193   -0.0058 C   0  0  0  0  0  4           0  0  0
    1.5995   -3.0696    1.4127 C   0  0  0  0  0  4           0  0  0
    1.1036   -4.5150    1.4641 C   0  0  0  0  0  4           0  0  0
    0.9283   -5.0294    2.8851 C   0  0  0  0  0  4           0  0  0
  1 14  1  0     0  0
  2 15  1  0     0  0
  3 16  1  0     0  0
  4 17  1  0     0  0
  5 18  1  0     0  0
  6 29  2  0     0  0
  7 30  2  0     0  0
  8 31  2  0     0  0
  9 30  1  0     0  0
  9 32  1  0     0  0
 10 29  1  0     0  0
 11 19  1  0     0  0
 11 20  1  0     0  0
 11 33  1  0     0  0
 12 14  1  0     0  0
 12 19  2  0     0  0
 13 21  1  0     0  0
 13 31  1  0     0  0
 14 20  2  0     0  0
 15 16  2  0     0  0
 15 17  1  0     0  0
 16 18  1  0     0  0
 17 22  2  0     0  0
 18 23  2  0     0  0
 19 34  1  0     0  0
 20 35  1  0     0  0
 21 25  2  0     0  0
 21 26  1  0     0  0
 22 23  1  0     0  0
 22 29  1  0     0  0
 23 31  1  0     0  0
 24 27  2  0     0  0
 24 28  1  0     0  0
 24 33  1  0     0  0
 25 27  1  0     0  0
 26 28  2  0     0  0
 30 35  1  0     0  0
 34 36  1  0     0  0
 36 37  1  0     0  0
 37 38  1  0     0  0
M  END
> <standard_type>
pIC50

> <# Confs.>
25

> <canonical_smiles>
ClC(N=C1CCCC)=C(CC(OC)=O)N1CC2=CC=C(NC(C3=C(F)C(F)=C(F)C(F)=C3C(O)=O)=O)C=C2

> <standard_relation>
=

> <Publication_ID>
nan

> <predicted_activity_value>
5.698970004336019

> <actual_activity_value>
6.102372908709558

> <Compound>
15

> <standard_units>
nM

> hash
7635010759574249356

$$$$
15_
XXILIB    08252103443D 0   0.00000     0.00000

 38 40  0     1  0            999 V2000
    5.0074   -1.4914   -0.0122 Cl  0  0  0  0  0  1           0  0  0
   -4.4171   -0.0588   11.2299 F   0  0  0  0  0  1           0  0  0
   -4.3821   -2.4904    9.9992 F   0  0  0  0  0  1           0  0  0
   -3.1254    2.0578   10.1191 F   0  0  0  0  0  1           0  0  0
   -3.0575   -2.8196    7.6505 F   0  0  0  0  0  1           0  0  0
   -2.2426    2.6581    6.9347 O   0  0  0  0  0  2           0  0  0
    0.8532   -2.5127   -2.2188 O   0  0  0  0  0  2           0  0  0
   -0.7705   -1.5642    6.3330 O   0  0  0  0  0  2           0  0  0
    2.4242   -4.0915   -1.6193 O   0  0  0  0  0  2           0  0  0
   -0.4535    1.9565    8.1609 O   0  0  0  0  0  2           0  0  0
    1.4523   -0.0000   -0.0000 N   0  0  0  0  0  3           0  0  0
    3.5393    0.7630   -0.0025 N   0  0  0  0  0  3           0  0  0
   -2.1145    0.0251    5.3156 N   0  0  0  0  0  3           0  0  0
    3.5500   -0.6068   -0.0019 C   0  0  0  0  0  4           0  0  0
   -3.7599   -0.2128   10.0729 C   0  0  0  0  0  4           0  0  0
   -3.7421   -1.4521    9.4455 C   0  0  0  0  0  4           0  0  0
   -3.0977    0.8677    9.5024 C   0  0  0  0  0  4           0  0  0
   -3.0650   -1.6169    8.2426 C   0  0  0  0  0  4           0  0  0
    2.2690    1.1150    0.0000 C   0  0  0  0  0  4           0  0  0
    2.2653   -1.1171    0.0044 C   0  0  0  0  0  4           0  0  0
   -1.5713   -0.0140    4.0168 C   0  0  0  0  0  4           0  0  0
   -2.4115    0.7094    8.2978 C   0  0  0  0  0  4           0  0  0
   -2.4026   -0.5358    7.6596 C   0  0  0  0  0  4           0  0  0
   -0.5425    0.0000    1.3966 C   0  0  0  0  0  4           0  0  0
   -0.5131   -0.8610    3.6718 C   0  0  0  0  0  4           0  0  0
   -2.1190    0.8324    3.0474 C   0  0  0  0  0  4           0  0  0
   -0.0051   -0.8533    2.3696 C   0  0  0  0  0  4           0  0  0
   -1.6100    0.8369    1.7464 C   0  0  0  0  0  4           0  0  0
   -1.7269    1.8756    7.7147 C   0  0  0  0  0  4           0  0  0
    1.6067   -3.0240   -1.3996 C   0  0  0  0  0  4           0  0  0
   -1.6846   -0.7436    6.3793 C   0  0  0  0  0  4           0  0  0
    2.3730   -4.6418   -2.9394 C   0  0  0  0  0  4           0  0  0
    0.0000    0.0000    0.0000 C   0  0  0  0  0  4           0  0  0
    1.7865    2.5211   -0.0017 C   0  0  0  0  0  4           0  0  0
    1.7775   -2.5193    0.0058 C   0  0  0  0  0  4           0  0  0
    1.5995    3.0696   -1.4127 C   0  0  0  0  0  4           0  0  0
    1.1036    4.5150   -1.4641 C   0  0  0  0  0  4           0  0  0
    0.9283    5.0294   -2.8851 C   0  0  0  0  0  4           0  0  0
  1 14  1  0     0  0
  2 15  1  0     0  0
  3 16  1  0     0  0
  4 17  1  0     0  0
  5 18  1  0     0  0
  6 29  2  0     0  0
  7 30  2  0     0  0
  8 31  2  0     0  0
  9 30  1  0     0  0
  9 32  1  0     0  0
 10 29  1  0     0  0
 11 19  1  0     0  0
 11 20  1  0     0  0
 11 33  1  0     0  0
 12 14  1  0     0  0
 12 19  2  0     0  0
 13 21  1  0     0  0
 13 31  1  0     0  0
 14 20  2  0     0  0
 15 16  2  0     0  0
 15 17  1  0     0  0
 16 18  1  0     0  0
 17 22  2  0     0  0
 18 23  2  0     0  0
 19 34  1  0     0  0
 20 35  1  0     0  0
 21 25  2  0     0  0
 21 26  1  0     0  0
 22 23  1  0     0  0
 22 29  1  0     0  0
 23 31  1  0     0  0
 24 27  2  0     0  0
 24 28  1  0     0  0
 24 33  1  0     0  0
 25 27  1  0     0  0
 26 28  2  0     0  0
 30 35  1  0     0  0
 34 36  1  0     0  0
 36 37  1  0     0  0
 37 38  1  0     0  0
M  END
> <standard_type>
pIC50

> <# Confs.>
25

> <canonical_smiles>
ClC(N=C1CCCC)=C(CC(OC)=O)N1CC2=CC=C(NC(C3=C(F)C(F)=C(F)C(F)=C3C(O)=O)=O)C=C2

> <standard_relation>
=

> <Publication_ID>
nan

> <predicted_activity_value>
5.698970004336019

> <actual_activity_value>
6.102372908709558

> <Compound>
15

> <standard_units>
nM

> hash
7635010759574249356

$$$$
15_
XXILIB    08252103443D 0   0.00000     0.00000

 38 40  0     1  0            999 V2000
    5.0074    1.4914    0.0122 Cl  0  0  0  0  0  1           0  0  0
   -4.4171   -0.0588   11.2299 F   0  0  0  0  0  1           0  0  0
   -4.3821   -2.4904    9.9992 F   0  0  0  0  0  1           0  0  0
   -3.1254    2.0578   10.1191 F   0  0  0  0  0  1           0  0  0
   -3.0575   -2.8196    7.6505 F   0  0  0  0  0  1           0  0  0
   -2.2426    2.6581    6.9347 O   0  0  0  0  0  2           0  0  0
    1.3076    2.2969   -2.3580 O   0  0  0  0  0  2           0  0  0
   -0.7705   -1.5642    6.3330 O   0  0  0  0  0  2           0  0  0
    1.7780    4.3683   -1.4592 O   0  0  0  0  0  2           0  0  0
   -0.4535    1.9565    8.1609 O   0  0  0  0  0  2           0  0  0
    1.4523   -0.0000   -0.0000 N   0  0  0  0  0  3           0  0  0
    3.5393   -0.7630    0.0025 N   0  0  0  0  0  3           0  0  0
   -2.1145    0.0251    5.3156 N   0  0  0  0  0  3           0  0  0
    3.5500    0.6068    0.0019 C   0  0  0  0  0  4           0  0  0
   -3.7599   -0.2128   10.0729 C   0  0  0  0  0  4           0  0  0
   -3.7421   -1.4521    9.4455 C   0  0  0  0  0  4           0  0  0
   -3.0977    0.8677    9.5024 C   0  0  0  0  0  4           0  0  0
   -3.0650   -1.6169    8.2426 C   0  0  0  0  0  4           0  0  0
    2.2690   -1.1150    0.0000 C   0  0  0  0  0  4           0  0  0
    2.2653    1.1171   -0.0044 C   0  0  0  0  0  4           0  0  0
   -1.5713   -0.0140    4.0168 C   0  0  0  0  0  4           0  0  0
   -2.4115    0.7094    8.2978 C   0  0  0  0  0  4           0  0  0
   -2.4026   -0.5358    7.6596 C   0  0  0  0  0  4           0  0  0
   -0.5425    0.0000    1.3966 C   0  0  0  0  0  4           0  0  0
   -0.5131   -0.8610    3.6718 C   0  0  0  0  0  4           0  0  0
   -2.1190    0.8324    3.0474 C   0  0  0  0  0  4           0  0  0
   -0.0051   -0.8533    2.3696 C   0  0  0  0  0  4           0  0  0
   -1.6100    0.8369    1.7464 C   0  0  0  0  0  4           0  0  0
   -1.7269    1.8756    7.7147 C   0  0  0  0  0  4           0  0  0
    1.5991    3.0185   -1.4121 C   0  0  0  0  0  4           0  0  0
   -1.6846   -0.7436    6.3793 C   0  0  0  0  0  4           0  0  0
    1.6014    4.9660   -2.7474 C   0  0  0  0  0  4           0  0  0
    0.0000    0.0000    0.0000 C   0  0  0  0  0  4           0  0  0
    1.7865   -2.5211    0.0017 C   0  0  0  0  0  4           0  0  0
    1.7775    2.5193   -0.0058 C   0  0  0  0  0  4           0  0  0
    2.5400   -3.3953   -0.9956 C   0  0  0  0  0  4           0  0  0
    2.4284   -2.9304   -2.4480 C   0  0  0  0  0  4           0  0  0
    3.1910   -3.8241   -3.4146 C   0  0  0  0  0  4           0  0  0
  1 14  1  0     0  0
  2 15  1  0     0  0
  3 16  1  0     0  0
  4 17  1  0     0  0
  5 18  1  0     0  0
  6 29  2  0     0  0
  7 30  2  0     0  0
  8 31  2  0     0  0
  9 30  1  0     0  0
  9 32  1  0     0  0
 10 29  1  0     0  0
 11 19  1  0     0  0
 11 20  1  0     0  0
 11 33  1  0     0  0
 12 14  1  0     0  0
 12 19  2  0     0  0
 13 21  1  0     0  0
 13 31  1  0     0  0
 14 20  2  0     0  0
 15 16  2  0     0  0
 15 17  1  0     0  0
 16 18  1  0     0  0
 17 22  2  0     0  0
 18 23  2  0     0  0
 19 34  1  0     0  0
 20 35  1  0     0  0
 21 25  2  0     0  0
 21 26  1  0     0  0
 22 23  1  0     0  0
 22 29  1  0     0  0
 23 31  1  0     0  0
 24 27  2  0     0  0
 24 28  1  0     0  0
 24 33  1  0     0  0
 25 27  1  0     0  0
 26 28  2  0     0  0
 30 35  1  0     0  0
 34 36  1  0     0  0
 36 37  1  0     0  0
 37 38  1  0     0  0
M  END
> <standard_type>
pIC50

> <# Confs.>
25

> <canonical_smiles>
ClC(N=C1CCCC)=C(CC(OC)=O)N1CC2=CC=C(NC(C3=C(F)C(F)=C(F)C(F)=C3C(O)=O)=O)C=C2

> <standard_relation>
=

> <Publication_ID>
nan

> <predicted_activity_value>
5.698970004336019

> <actual_activity_value>
6.102372908709558

> <Compound>
15

> <standard_units>
nM

> hash
7635010759574249356

$$$$
15_
XXILIB    08252103443D 0   0.00000     0.00000

 38 40  0     1  0            999 V2000
    5.0074   -1.4914   -0.0122 Cl  0  0  0  0  0  1           0  0  0
   -4.2893   -0.0557   11.2738 F   0  0  0  0  0  1           0  0  0
   -3.4686   -2.4815   10.3407 F   0  0  0  0  0  1           0  0  0
   -4.5209    2.0567    9.5808 F   0  0  0  0  0  1           0  0  0
   -2.8768   -2.8099    7.7099 F   0  0  0  0  0  1           0  0  0
   -3.0642    2.6759    6.6238 O   0  0  0  0  0  2           0  0  0
    1.3203   -2.3060   -2.3498 O   0  0  0  0  0  2           0  0  0
   -3.6966   -1.5750    5.1963 O   0  0  0  0  0  2           0  0  0
    1.8453   -4.3643   -1.4510 O   0  0  0  0  0  2           0  0  0
   -5.1977    1.9265    6.3357 O   0  0  0  0  0  2           0  0  0
    1.4523   -0.0000   -0.0000 N   0  0  0  0  0  3           0  0  0
    3.5393    0.7630   -0.0025 N   0  0  0  0  0  3           0  0  0
   -2.0480    0.0462    5.3415 N   0  0  0  0  0  3           0  0  0
    3.5500   -0.6068   -0.0019 C   0  0  0  0  0  4           0  0  0
   -3.9976   -0.2085    9.9755 C   0  0  0  0  0  4           0  0  0
   -3.5795   -1.4448    9.4997 C   0  0  0  0  0  4           0  0  0
   -4.1145    0.8703    9.1070 C   0  0  0  0  0  4           0  0  0
   -3.2792   -1.6102    8.1524 C   0  0  0  0  0  4           0  0  0
    2.2690    1.1150    0.0000 C   0  0  0  0  0  4           0  0  0
    2.2653   -1.1171    0.0044 C   0  0  0  0  0  4           0  0  0
   -1.5748    0.0102    4.0154 C   0  0  0  0  0  4           0  0  0
   -3.8102    0.7139    7.7542 C   0  0  0  0  0  4           0  0  0
   -3.3998   -0.5340    7.2723 C   0  0  0  0  0  4           0  0  0
   -0.5425    0.0000    1.3966 C   0  0  0  0  0  4           0  0  0
   -2.1092   -0.8512    3.0518 C   0  0  0  0  0  4           0  0  0
   -0.5305    0.8717    3.6644 C   0  0  0  0  0  4           0  0  0
   -1.5959   -0.8533    1.7517 C   0  0  0  0  0  4           0  0  0
   -0.0204    0.8683    2.3639 C   0  0  0  0  0  4           0  0  0
   -3.9522    1.8739    6.8581 C   0  0  0  0  0  4           0  0  0
    1.6067   -3.0240   -1.3996 C   0  0  0  0  0  4           0  0  0
   -3.0672   -0.7396    5.8422 C   0  0  0  0  0  4           0  0  0
    1.7436   -4.9561   -2.7500 C   0  0  0  0  0  4           0  0  0
    0.0000    0.0000    0.0000 C   0  0  0  0  0  4           0  0  0
    1.7865    2.5211   -0.0017 C   0  0  0  0  0  4           0  0  0
    1.7775   -2.5193    0.0058 C   0  0  0  0  0  4           0  0  0
    2.5400    3.3953    0.9956 C   0  0  0  0  0  4           0  0  0
    2.0772    4.8522    1.0289 C   0  0  0  0  0  4           0  0  0
    2.8491    5.6945    2.0335 C   0  0  0  0  0  4           0  0  0
  1 14  1  0     0  0
  2 15  1  0     0  0
  3 16  1  0     0  0
  4 17  1  0     0  0
  5 18  1  0     0  0
  6 29  2  0     0  0
  7 30  2  0     0  0
  8 31  2  0     0  0
  9 30  1  0     0  0
  9 32  1  0     0  0
 10 29  1  0     0  0
 11 19  1  0     0  0
 11 20  1  0     0  0
 11 33  1  0     0  0
 12 14  1  0     0  0
 12 19  2  0     0  0
 13 21  1  0     0  0
 13 31  1  0     0  0
 14 20  2  0     0  0
 15 16  2  0     0  0
 15 17  1  0     0  0
 16 18  1  0     0  0
 17 22  2  0     0  0
 18 23  2  0     0  0
 19 34  1  0     0  0
 20 35  1  0     0  0
 21 25  2  0     0  0
 21 26  1  0     0  0
 22 23  1  0     0  0
 22 29  1  0     0  0
 23 31  1  0     0  0
 24 27  2  0     0  0
 24 28  1  0     0  0
 24 33  1  0     0  0
 25 27  1  0     0  0
 26 28  2  0     0  0
 30 35  1  0     0  0
 34 36  1  0     0  0
 36 37  1  0     0  0
 37 38  1  0     0  0
M  END
> <standard_type>
pIC50

> <# Confs.>
25

> <canonical_smiles>
ClC(N=C1CCCC)=C(CC(OC)=O)N1CC2=CC=C(NC(C3=C(F)C(F)=C(F)C(F)=C3C(O)=O)=O)C=C2

> <standard_relation>
=

> <Publication_ID>
nan

> <predicted_activity_value>
5.698970004336019

> <actual_activity_value>
6.102372908709558

> <Compound>
15

> <standard_units>
nM

> hash
7635010759574249356

$$$$
15_
XXILIB    08252103443D 0   0.00000     0.00000

 38 40  0     1  0            999 V2000
    5.0074   -1.4914   -0.0122 Cl  0  0  0  0  0  1           0  0  0
   -4.4243    0.0510   11.2271 F   0  0  0  0  0  1           0  0  0
   -6.2709    0.4640    9.2655 F   0  0  0  0  0  1           0  0  0
   -1.9071   -0.7508   10.5924 F   0  0  0  0  0  1           0  0  0
   -5.6114    0.0798    6.6584 F   0  0  0  0  0  1           0  0  0
   -0.1570   -0.4206    7.7449 O   0  0  0  0  0  2           0  0  0
    1.3203   -2.3060   -2.3498 O   0  0  0  0  0  2           0  0  0
   -3.6966   -1.5750    5.1963 O   0  0  0  0  0  2           0  0  0
    1.8453   -4.3643   -1.4510 O   0  0  0  0  0  2           0  0  0
   -0.9902   -2.5323    7.9524 O   0  0  0  0  0  2           0  0  0
    1.4523   -0.0000   -0.0000 N   0  0  0  0  0  3           0  0  0
    3.5393    0.7630   -0.0025 N   0  0  0  0  0  3           0  0  0
   -2.0480    0.0462    5.3415 N   0  0  0  0  0  3           0  0  0
    3.5500   -0.6068   -0.0019 C   0  0  0  0  0  4           0  0  0
   -4.0913   -0.1426    9.9442 C   0  0  0  0  0  4           0  0  0
   -5.0323    0.0679    8.9443 C   0  0  0  0  0  4           0  0  0
   -2.8046   -0.5534    9.6163 C   0  0  0  0  0  4           0  0  0
   -4.6911   -0.1277    7.6109 C   0  0  0  0  0  4           0  0  0
    2.2690    1.1150    0.0000 C   0  0  0  0  0  4           0  0  0
    2.2653   -1.1171    0.0044 C   0  0  0  0  0  4           0  0  0
   -1.5748    0.0102    4.0154 C   0  0  0  0  0  4           0  0  0
   -2.4556   -0.7568    8.2806 C   0  0  0  0  0  4           0  0  0
   -3.3998   -0.5340    7.2723 C   0  0  0  0  0  4           0  0  0
   -0.5425    0.0000    1.3966 C   0  0  0  0  0  4           0  0  0
   -2.1092   -0.8512    3.0518 C   0  0  0  0  0  4           0  0  0
   -0.5305    0.8717    3.6644 C   0  0  0  0  0  4           0  0  0
   -1.5959   -0.8533    1.7517 C   0  0  0  0  0  4           0  0  0
   -0.0204    0.8683    2.3639 C   0  0  0  0  0  4           0  0  0
   -1.0820   -1.1838    7.9652 C   0  0  0  0  0  4           0  0  0
    1.6067   -3.0240   -1.3996 C   0  0  0  0  0  4           0  0  0
   -3.0672   -0.7396    5.8422 C   0  0  0  0  0  4           0  0  0
    1.7436   -4.9561   -2.7500 C   0  0  0  0  0  4           0  0  0
    0.0000    0.0000    0.0000 C   0  0  0  0  0  4           0  0  0
    1.7865    2.5211   -0.0017 C   0  0  0  0  0  4           0  0  0
    1.7775   -2.5193    0.0058 C   0  0  0  0  0  4           0  0  0
    2.5400    3.3953    0.9956 C   0  0  0  0  0  4           0  0  0
    2.0772    4.8522    1.0289 C   0  0  0  0  0  4           0  0  0
    2.8491    5.6945    2.0335 C   0  0  0  0  0  4           0  0  0
  1 14  1  0     0  0
  2 15  1  0     0  0
  3 16  1  0     0  0
  4 17  1  0     0  0
  5 18  1  0     0  0
  6 29  2  0     0  0
  7 30  2  0     0  0
  8 31  2  0     0  0
  9 30  1  0     0  0
  9 32  1  0     0  0
 10 29  1  0     0  0
 11 19  1  0     0  0
 11 20  1  0     0  0
 11 33  1  0     0  0
 12 14  1  0     0  0
 12 19  2  0     0  0
 13 21  1  0     0  0
 13 31  1  0     0  0
 14 20  2  0     0  0
 15 16  2  0     0  0
 15 17  1  0     0  0
 16 18  1  0     0  0
 17 22  2  0     0  0
 18 23  2  0     0  0
 19 34  1  0     0  0
 20 35  1  0     0  0
 21 25  2  0     0  0
 21 26  1  0     0  0
 22 23  1  0     0  0
 22 29  1  0     0  0
 23 31  1  0     0  0
 24 27  2  0     0  0
 24 28  1  0     0  0
 24 33  1  0     0  0
 25 27  1  0     0  0
 26 28  2  0     0  0
 30 35  1  0     0  0
 34 36  1  0     0  0
 36 37  1  0     0  0
 37 38  1  0     0  0
M  END
> <standard_type>
pIC50

> <# Confs.>
25

> <canonical_smiles>
ClC(N=C1CCCC)=C(CC(OC)=O)N1CC2=CC=C(NC(C3=C(F)C(F)=C(F)C(F)=C3C(O)=O)=O)C=C2

> <standard_relation>
=

> <Publication_ID>
nan

> <predicted_activity_value>
5.698970004336019

> <actual_activity_value>
6.102372908709558

> <Compound>
15

> <standard_units>
nM

> hash
7635010759574249356

$$$$
15_
XXILIB    08252103443D 0   0.00000     0.00000

 38 40  0     1  0            999 V2000
    5.0074    1.4914    0.0122 Cl  0  0  0  0  0  1           0  0  0
   -4.4243    0.0510   11.2271 F   0  0  0  0  0  1           0  0  0
   -6.2709    0.4640    9.2655 F   0  0  0  0  0  1           0  0  0
   -1.9071   -0.7508   10.5924 F   0  0  0  0  0  1           0  0  0
   -5.6114    0.0798    6.6584 F   0  0  0  0  0  1           0  0  0
   -0.1570   -0.4206    7.7449 O   0  0  0  0  0  2           0  0  0
    1.3076    2.2969   -2.3580 O   0  0  0  0  0  2           0  0  0
   -3.6966   -1.5750    5.1963 O   0  0  0  0  0  2           0  0  0
    1.7780    4.3683   -1.4592 O   0  0  0  0  0  2           0  0  0
   -0.9902   -2.5323    7.9524 O   0  0  0  0  0  2           0  0  0
    1.4523   -0.0000   -0.0000 N   0  0  0  0  0  3           0  0  0
    3.5393   -0.7630    0.0025 N   0  0  0  0  0  3           0  0  0
   -2.0480    0.0462    5.3415 N   0  0  0  0  0  3           0  0  0
    3.5500    0.6068    0.0019 C   0  0  0  0  0  4           0  0  0
   -4.0913   -0.1426    9.9442 C   0  0  0  0  0  4           0  0  0
   -5.0323    0.0679    8.9443 C   0  0  0  0  0  4           0  0  0
   -2.8046   -0.5534    9.6163 C   0  0  0  0  0  4           0  0  0
   -4.6911   -0.1277    7.6109 C   0  0  0  0  0  4           0  0  0
    2.2690   -1.1150    0.0000 C   0  0  0  0  0  4           0  0  0
    2.2653    1.1171   -0.0044 C   0  0  0  0  0  4           0  0  0
   -1.5748    0.0102    4.0154 C   0  0  0  0  0  4           0  0  0
   -2.4556   -0.7568    8.2806 C   0  0  0  0  0  4           0  0  0
   -3.3998   -0.5340    7.2723 C   0  0  0  0  0  4           0  0  0
   -0.5425    0.0000    1.3966 C   0  0  0  0  0  4           0  0  0
   -2.1092   -0.8512    3.0518 C   0  0  0  0  0  4           0  0  0
   -0.5305    0.8717    3.6644 C   0  0  0  0  0  4           0  0  0
   -1.5959   -0.8533    1.7517 C   0  0  0  0  0  4           0  0  0
   -0.0204    0.8683    2.3639 C   0  0  0  0  0  4           0  0  0
   -1.0820   -1.1838    7.9652 C   0  0  0  0  0  4           0  0  0
    1.5991    3.0185   -1.4121 C   0  0  0  0  0  4           0  0  0
   -3.0672   -0.7396    5.8422 C   0  0  0  0  0  4           0  0  0
    1.6014    4.9660   -2.7474 C   0  0  0  0  0  4           0  0  0
    0.0000    0.0000    0.0000 C   0  0  0  0  0  4           0  0  0
    1.7865   -2.5211    0.0017 C   0  0  0  0  0  4           0  0  0
    1.7775    2.5193   -0.0058 C   0  0  0  0  0  4           0  0  0
    1.5963   -3.0720   -1.4079 C   0  0  0  0  0  4           0  0  0
    1.1003   -4.5175   -1.4557 C   0  0  0  0  0  4           0  0  0
    0.9217   -5.0342   -2.8755 C   0  0  0  0  0  4           0  0  0
  1 14  1  0     0  0
  2 15  1  0     0  0
  3 16  1  0     0  0
  4 17  1  0     0  0
  5 18  1  0     0  0
  6 29  2  0     0  0
  7 30  2  0     0  0
  8 31  2  0     0  0
  9 30  1  0     0  0
  9 32  1  0     0  0
 10 29  1  0     0  0
 11 19  1  0     0  0
 11 20  1  0     0  0
 11 33  1  0     0  0
 12 14  1  0     0  0
 12 19  2  0     0  0
 13 21  1  0     0  0
 13 31  1  0     0  0
 14 20  2  0     0  0
 15 16  2  0     0  0
 15 17  1  0     0  0
 16 18  1  0     0  0
 17 22  2  0     0  0
 18 23  2  0     0  0
 19 34  1  0     0  0
 20 35  1  0     0  0
 21 25  2  0     0  0
 21 26  1  0     0  0
 22 23  1  0     0  0
 22 29  1  0     0  0
 23 31  1  0     0  0
 24 27  2  0     0  0
 24 28  1  0     0  0
 24 33  1  0     0  0
 25 27  1  0     0  0
 26 28  2  0     0  0
 30 35  1  0     0  0
 34 36  1  0     0  0
 36 37  1  0     0  0
 37 38  1  0     0  0
M  END
> <standard_type>
pIC50

> <# Confs.>
25

> <canonical_smiles>
ClC(N=C1CCCC)=C(CC(OC)=O)N1CC2=CC=C(NC(C3=C(F)C(F)=C(F)C(F)=C3C(O)=O)=O)C=C2

> <standard_relation>
=

> <Publication_ID>
nan

> <predicted_activity_value>
5.698970004336019

> <actual_activity_value>
6.102372908709558

> <Compound>
15

> <standard_units>
nM

> hash
7635010759574249356

$$$$
15_
XXILIB    08252103443D 0   0.00000     0.00000

 38 40  0     1  0            999 V2000
    5.0074    1.4914    0.0122 Cl  0  0  0  0  0  1           0  0  0
   -4.4243    0.0510   11.2271 F   0  0  0  0  0  1           0  0  0
   -6.2709    0.4640    9.2655 F   0  0  0  0  0  1           0  0  0
   -1.9071   -0.7508   10.5924 F   0  0  0  0  0  1           0  0  0
   -5.6114    0.0798    6.6584 F   0  0  0  0  0  1           0  0  0
   -0.1570   -0.4206    7.7449 O   0  0  0  0  0  2           0  0  0
    1.3076    2.2969   -2.3580 O   0  0  0  0  0  2           0  0  0
   -3.6966   -1.5750    5.1963 O   0  0  0  0  0  2           0  0  0
    1.7780    4.3683   -1.4592 O   0  0  0  0  0  2           0  0  0
   -0.9902   -2.5323    7.9524 O   0  0  0  0  0  2           0  0  0
    1.4523   -0.0000   -0.0000 N   0  0  0  0  0  3           0  0  0
    3.5393   -0.7630    0.0025 N   0  0  0  0  0  3           0  0  0
   -2.0480    0.0462    5.3415 N   0  0  0  0  0  3           0  0  0
    3.5500    0.6068    0.0019 C   0  0  0  0  0  4           0  0  0
   -4.0913   -0.1426    9.9442 C   0  0  0  0  0  4           0  0  0
   -5.0323    0.0679    8.9443 C   0  0  0  0  0  4           0  0  0
   -2.8046   -0.5534    9.6163 C   0  0  0  0  0  4           0  0  0
   -4.6911   -0.1277    7.6109 C   0  0  0  0  0  4           0  0  0
    2.2690   -1.1150    0.0000 C   0  0  0  0  0  4           0  0  0
    2.2653    1.1171   -0.0044 C   0  0  0  0  0  4           0  0  0
   -1.5748    0.0102    4.0154 C   0  0  0  0  0  4           0  0  0
   -2.4556   -0.7568    8.2806 C   0  0  0  0  0  4           0  0  0
   -3.3998   -0.5340    7.2723 C   0  0  0  0  0  4           0  0  0
   -0.5425    0.0000    1.3966 C   0  0  0  0  0  4           0  0  0
   -2.1092   -0.8512    3.0518 C   0  0  0  0  0  4           0  0  0
   -0.5305    0.8717    3.6644 C   0  0  0  0  0  4           0  0  0
   -1.5959   -0.8533    1.7517 C   0  0  0  0  0  4           0  0  0
   -0.0204    0.8683    2.3639 C   0  0  0  0  0  4           0  0  0
   -1.0820   -1.1838    7.9652 C   0  0  0  0  0  4           0  0  0
    1.5991    3.0185   -1.4121 C   0  0  0  0  0  4           0  0  0
   -3.0672   -0.7396    5.8422 C   0  0  0  0  0  4           0  0  0
    1.6014    4.9660   -2.7474 C   0  0  0  0  0  4           0  0  0
    0.0000    0.0000    0.0000 C   0  0  0  0  0  4           0  0  0
    1.7865   -2.5211    0.0017 C   0  0  0  0  0  4           0  0  0
    1.7775    2.5193   -0.0058 C   0  0  0  0  0  4           0  0  0
    2.5423   -3.3936    0.9988 C   0  0  0  0  0  4           0  0  0
    2.4340   -2.9263    2.4506 C   0  0  0  0  0  4           0  0  0
    3.1988   -3.8184    3.4171 C   0  0  0  0  0  4           0  0  0
  1 14  1  0     0  0
  2 15  1  0     0  0
  3 16  1  0     0  0
  4 17  1  0     0  0
  5 18  1  0     0  0
  6 29  2  0     0  0
  7 30  2  0     0  0
  8 31  2  0     0  0
  9 30  1  0     0  0
  9 32  1  0     0  0
 10 29  1  0     0  0
 11 19  1  0     0  0
 11 20  1  0     0  0
 11 33  1  0     0  0
 12 14  1  0     0  0
 12 19  2  0     0  0
 13 21  1  0     0  0
 13 31  1  0     0  0
 14 20  2  0     0  0
 15 16  2  0     0  0
 15 17  1  0     0  0
 16 18  1  0     0  0
 17 22  2  0     0  0
 18 23  2  0     0  0
 19 34  1  0     0  0
 20 35  1  0     0  0
 21 25  2  0     0  0
 21 26  1  0     0  0
 22 23  1  0     0  0
 22 29  1  0     0  0
 23 31  1  0     0  0
 24 27  2  0     0  0
 24 28  1  0     0  0
 24 33  1  0     0  0
 25 27  1  0     0  0
 26 28  2  0     0  0
 30 35  1  0     0  0
 34 36  1  0     0  0
 36 37  1  0     0  0
 37 38  1  0     0  0
M  END
> <standard_type>
pIC50

> <# Confs.>
25

> <canonical_smiles>
ClC(N=C1CCCC)=C(CC(OC)=O)N1CC2=CC=C(NC(C3=C(F)C(F)=C(F)C(F)=C3C(O)=O)=O)C=C2

> <standard_relation>
=

> <Publication_ID>
nan

> <predicted_activity_value>
5.698970004336019

> <actual_activity_value>
6.102372908709558

> <Compound>
15

> <standard_units>
nM

> hash
7635010759574249356

$$$$
15_
XXILIB    08252103443D 0   0.00000     0.00000

 38 40  0     1  0            999 V2000
    5.0074    1.4914    0.0122 Cl  0  0  0  0  0  1           0  0  0
   -4.2893   -0.0557   11.2738 F   0  0  0  0  0  1           0  0  0
   -3.4686   -2.4815   10.3407 F   0  0  0  0  0  1           0  0  0
   -4.5209    2.0567    9.5808 F   0  0  0  0  0  1           0  0  0
   -2.8768   -2.8099    7.7099 F   0  0  0  0  0  1           0  0  0
   -3.0642    2.6759    6.6238 O   0  0  0  0  0  2           0  0  0
    1.3076    2.2969   -2.3580 O   0  0  0  0  0  2           0  0  0
   -3.6966   -1.5750    5.1963 O   0  0  0  0  0  2           0  0  0
    1.7780    4.3683   -1.4592 O   0  0  0  0  0  2           0  0  0
   -5.1977    1.9265    6.3357 O   0  0  0  0  0  2           0  0  0
    1.4523   -0.0000   -0.0000 N   0  0  0  0  0  3           0  0  0
    3.5393   -0.7630    0.0025 N   0  0  0  0  0  3           0  0  0
   -2.0480    0.0462    5.3415 N   0  0  0  0  0  3           0  0  0
    3.5500    0.6068    0.0019 C   0  0  0  0  0  4           0  0  0
   -3.9976   -0.2085    9.9755 C   0  0  0  0  0  4           0  0  0
   -3.5795   -1.4448    9.4997 C   0  0  0  0  0  4           0  0  0
   -4.1145    0.8703    9.1070 C   0  0  0  0  0  4           0  0  0
   -3.2792   -1.6102    8.1524 C   0  0  0  0  0  4           0  0  0
    2.2690   -1.1150    0.0000 C   0  0  0  0  0  4           0  0  0
    2.2653    1.1171   -0.0044 C   0  0  0  0  0  4           0  0  0
   -1.5748    0.0102    4.0154 C   0  0  0  0  0  4           0  0  0
   -3.8102    0.7139    7.7542 C   0  0  0  0  0  4           0  0  0
   -3.3998   -0.5340    7.2723 C   0  0  0  0  0  4           0  0  0
   -0.5425    0.0000    1.3966 C   0  0  0  0  0  4           0  0  0
   -2.1092   -0.8512    3.0518 C   0  0  0  0  0  4           0  0  0
   -0.5305    0.8717    3.6644 C   0  0  0  0  0  4           0  0  0
   -1.5959   -0.8533    1.7517 C   0  0  0  0  0  4           0  0  0
   -0.0204    0.8683    2.3639 C   0  0  0  0  0  4           0  0  0
   -3.9522    1.8739    6.8581 C   0  0  0  0  0  4           0  0  0
    1.5991    3.0185   -1.4121 C   0  0  0  0  0  4           0  0  0
   -3.0672   -0.7396    5.8422 C   0  0  0  0  0  4           0  0  0
    1.6014    4.9660   -2.7474 C   0  0  0  0  0  4           0  0  0
    0.0000    0.0000    0.0000 C   0  0  0  0  0  4           0  0  0
    1.7865   -2.5211    0.0017 C   0  0  0  0  0  4           0  0  0
    1.7775    2.5193   -0.0058 C   0  0  0  0  0  4           0  0  0
    1.5963   -3.0720   -1.4079 C   0  0  0  0  0  4           0  0  0
    1.1003   -4.5175   -1.4557 C   0  0  0  0  0  4           0  0  0
    0.9217   -5.0342   -2.8755 C   0  0  0  0  0  4           0  0  0
  1 14  1  0     0  0
  2 15  1  0     0  0
  3 16  1  0     0  0
  4 17  1  0     0  0
  5 18  1  0     0  0
  6 29  2  0     0  0
  7 30  2  0     0  0
  8 31  2  0     0  0
  9 30  1  0     0  0
  9 32  1  0     0  0
 10 29  1  0     0  0
 11 19  1  0     0  0
 11 20  1  0     0  0
 11 33  1  0     0  0
 12 14  1  0     0  0
 12 19  2  0     0  0
 13 21  1  0     0  0
 13 31  1  0     0  0
 14 20  2  0     0  0
 15 16  2  0     0  0
 15 17  1  0     0  0
 16 18  1  0     0  0
 17 22  2  0     0  0
 18 23  2  0     0  0
 19 34  1  0     0  0
 20 35  1  0     0  0
 21 25  2  0     0  0
 21 26  1  0     0  0
 22 23  1  0     0  0
 22 29  1  0     0  0
 23 31  1  0     0  0
 24 27  2  0     0  0
 24 28  1  0     0  0
 24 33  1  0     0  0
 25 27  1  0     0  0
 26 28  2  0     0  0
 30 35  1  0     0  0
 34 36  1  0     0  0
 36 37  1  0     0  0
 37 38  1  0     0  0
M  END
> <standard_type>
pIC50

> <# Confs.>
25

> <canonical_smiles>
ClC(N=C1CCCC)=C(CC(OC)=O)N1CC2=CC=C(NC(C3=C(F)C(F)=C(F)C(F)=C3C(O)=O)=O)C=C2

> <standard_relation>
=

> <Publication_ID>
nan

> <predicted_activity_value>
5.698970004336019

> <actual_activity_value>
6.102372908709558

> <Compound>
15

> <standard_units>
nM

> hash
7635010759574249356

$$$$
15_
XXILIB    08252103443D 0   0.00000     0.00000

 38 40  0     1  0            999 V2000
    5.0074    1.4914    0.0122 Cl  0  0  0  0  0  1           0  0  0
   -4.4171   -0.0588   11.2299 F   0  0  0  0  0  1           0  0  0
   -4.3821   -2.4904    9.9992 F   0  0  0  0  0  1           0  0  0
   -3.1254    2.0578   10.1191 F   0  0  0  0  0  1           0  0  0
   -3.0575   -2.8196    7.6505 F   0  0  0  0  0  1           0  0  0
   -2.2426    2.6581    6.9347 O   0  0  0  0  0  2           0  0  0
    0.8411    2.5041   -2.2253 O   0  0  0  0  0  2           0  0  0
   -0.7705   -1.5642    6.3330 O   0  0  0  0  0  2           0  0  0
    2.3702    4.1220   -1.6217 O   0  0  0  0  0  2           0  0  0
   -0.4535    1.9565    8.1609 O   0  0  0  0  0  2           0  0  0
    1.4523   -0.0000   -0.0000 N   0  0  0  0  0  3           0  0  0
    3.5393   -0.7630    0.0025 N   0  0  0  0  0  3           0  0  0
   -2.1145    0.0251    5.3156 N   0  0  0  0  0  3           0  0  0
    3.5500    0.6068    0.0019 C   0  0  0  0  0  4           0  0  0
   -3.7599   -0.2128   10.0729 C   0  0  0  0  0  4           0  0  0
   -3.7421   -1.4521    9.4455 C   0  0  0  0  0  4           0  0  0
   -3.0977    0.8677    9.5024 C   0  0  0  0  0  4           0  0  0
   -3.0650   -1.6169    8.2426 C   0  0  0  0  0  4           0  0  0
    2.2690   -1.1150    0.0000 C   0  0  0  0  0  4           0  0  0
    2.2653    1.1171   -0.0044 C   0  0  0  0  0  4           0  0  0
   -1.5713   -0.0140    4.0168 C   0  0  0  0  0  4           0  0  0
   -2.4115    0.7094    8.2978 C   0  0  0  0  0  4           0  0  0
   -2.4026   -0.5358    7.6596 C   0  0  0  0  0  4           0  0  0
   -0.5425    0.0000    1.3966 C   0  0  0  0  0  4           0  0  0
   -0.5131   -0.8610    3.6718 C   0  0  0  0  0  4           0  0  0
   -2.1190    0.8324    3.0474 C   0  0  0  0  0  4           0  0  0
   -0.0051   -0.8533    2.3696 C   0  0  0  0  0  4           0  0  0
   -1.6100    0.8369    1.7464 C   0  0  0  0  0  4           0  0  0
   -1.7269    1.8756    7.7147 C   0  0  0  0  0  4           0  0  0
    1.5991    3.0185   -1.4121 C   0  0  0  0  0  4           0  0  0
   -1.6846   -0.7436    6.3793 C   0  0  0  0  0  4           0  0  0
    2.2603    4.7091   -2.9221 C   0  0  0  0  0  4           0  0  0
    0.0000    0.0000    0.0000 C   0  0  0  0  0  4           0  0  0
    1.7865   -2.5211    0.0017 C   0  0  0  0  0  4           0  0  0
    1.7775    2.5193   -0.0058 C   0  0  0  0  0  4           0  0  0
    1.5963   -3.0720   -1.4079 C   0  0  0  0  0  4           0  0  0
    1.1003   -4.5175   -1.4557 C   0  0  0  0  0  4           0  0  0
    0.9217   -5.0342   -2.8755 C   0  0  0  0  0  4           0  0  0
  1 14  1  0     0  0
  2 15  1  0     0  0
  3 16  1  0     0  0
  4 17  1  0     0  0
  5 18  1  0     0  0
  6 29  2  0     0  0
  7 30  2  0     0  0
  8 31  2  0     0  0
  9 30  1  0     0  0
  9 32  1  0     0  0
 10 29  1  0     0  0
 11 19  1  0     0  0
 11 20  1  0     0  0
 11 33  1  0     0  0
 12 14  1  0     0  0
 12 19  2  0     0  0
 13 21  1  0     0  0
 13 31  1  0     0  0
 14 20  2  0     0  0
 15 16  2  0     0  0
 15 17  1  0     0  0
 16 18  1  0     0  0
 17 22  2  0     0  0
 18 23  2  0     0  0
 19 34  1  0     0  0
 20 35  1  0     0  0
 21 25  2  0     0  0
 21 26  1  0     0  0
 22 23  1  0     0  0
 22 29  1  0     0  0
 23 31  1  0     0  0
 24 27  2  0     0  0
 24 28  1  0     0  0
 24 33  1  0     0  0
 25 27  1  0     0  0
 26 28  2  0     0  0
 30 35  1  0     0  0
 34 36  1  0     0  0
 36 37  1  0     0  0
 37 38  1  0     0  0
M  END
> <standard_type>
pIC50

> <# Confs.>
25

> <canonical_smiles>
ClC(N=C1CCCC)=C(CC(OC)=O)N1CC2=CC=C(NC(C3=C(F)C(F)=C(F)C(F)=C3C(O)=O)=O)C=C2

> <standard_relation>
=

> <Publication_ID>
nan

> <predicted_activity_value>
5.698970004336019

> <actual_activity_value>
6.102372908709558

> <Compound>
15

> <standard_units>
nM

> hash
7635010759574249356

$$$$
15_
XXILIB    08252103443D 0   0.00000     0.00000

 38 40  0     1  0            999 V2000
    5.0074    1.4914    0.0122 Cl  0  0  0  0  0  1           0  0  0
   -4.2893   -0.0557   11.2738 F   0  0  0  0  0  1           0  0  0
   -3.4686   -2.4815   10.3407 F   0  0  0  0  0  1           0  0  0
   -4.5209    2.0567    9.5808 F   0  0  0  0  0  1           0  0  0
   -2.8768   -2.8099    7.7099 F   0  0  0  0  0  1           0  0  0
   -3.0642    2.6759    6.6238 O   0  0  0  0  0  2           0  0  0
    1.3076    2.2969   -2.3580 O   0  0  0  0  0  2           0  0  0
   -3.6966   -1.5750    5.1963 O   0  0  0  0  0  2           0  0  0
    1.7780    4.3683   -1.4592 O   0  0  0  0  0  2           0  0  0
   -5.1977    1.9265    6.3357 O   0  0  0  0  0  2           0  0  0
    1.4523   -0.0000   -0.0000 N   0  0  0  0  0  3           0  0  0
    3.5393   -0.7630    0.0025 N   0  0  0  0  0  3           0  0  0
   -2.0480    0.0462    5.3415 N   0  0  0  0  0  3           0  0  0
    3.5500    0.6068    0.0019 C   0  0  0  0  0  4           0  0  0
   -3.9976   -0.2085    9.9755 C   0  0  0  0  0  4           0  0  0
   -3.5795   -1.4448    9.4997 C   0  0  0  0  0  4           0  0  0
   -4.1145    0.8703    9.1070 C   0  0  0  0  0  4           0  0  0
   -3.2792   -1.6102    8.1524 C   0  0  0  0  0  4           0  0  0
    2.2690   -1.1150    0.0000 C   0  0  0  0  0  4           0  0  0
    2.2653    1.1171   -0.0044 C   0  0  0  0  0  4           0  0  0
   -1.5748    0.0102    4.0154 C   0  0  0  0  0  4           0  0  0
   -3.8102    0.7139    7.7542 C   0  0  0  0  0  4           0  0  0
   -3.3998   -0.5340    7.2723 C   0  0  0  0  0  4           0  0  0
   -0.5425    0.0000    1.3966 C   0  0  0  0  0  4           0  0  0
   -2.1092   -0.8512    3.0518 C   0  0  0  0  0  4           0  0  0
   -0.5305    0.8717    3.6644 C   0  0  0  0  0  4           0  0  0
   -1.5959   -0.8533    1.7517 C   0  0  0  0  0  4           0  0  0
   -0.0204    0.8683    2.3639 C   0  0  0  0  0  4           0  0  0
   -3.9522    1.8739    6.8581 C   0  0  0  0  0  4           0  0  0
    1.5991    3.0185   -1.4121 C   0  0  0  0  0  4           0  0  0
   -3.0672   -0.7396    5.8422 C   0  0  0  0  0  4           0  0  0
    1.6014    4.9660   -2.7474 C   0  0  0  0  0  4           0  0  0
    0.0000    0.0000    0.0000 C   0  0  0  0  0  4           0  0  0
    1.7865   -2.5211    0.0017 C   0  0  0  0  0  4           0  0  0
    1.7775    2.5193   -0.0058 C   0  0  0  0  0  4           0  0  0
    2.5423   -3.3936    0.9988 C   0  0  0  0  0  4           0  0  0
    2.4340   -2.9263    2.4506 C   0  0  0  0  0  4           0  0  0
    3.1988   -3.8184    3.4171 C   0  0  0  0  0  4           0  0  0
  1 14  1  0     0  0
  2 15  1  0     0  0
  3 16  1  0     0  0
  4 17  1  0     0  0
  5 18  1  0     0  0
  6 29  2  0     0  0
  7 30  2  0     0  0
  8 31  2  0     0  0
  9 30  1  0     0  0
  9 32  1  0     0  0
 10 29  1  0     0  0
 11 19  1  0     0  0
 11 20  1  0     0  0
 11 33  1  0     0  0
 12 14  1  0     0  0
 12 19  2  0     0  0
 13 21  1  0     0  0
 13 31  1  0     0  0
 14 20  2  0     0  0
 15 16  2  0     0  0
 15 17  1  0     0  0
 16 18  1  0     0  0
 17 22  2  0     0  0
 18 23  2  0     0  0
 19 34  1  0     0  0
 20 35  1  0     0  0
 21 25  2  0     0  0
 21 26  1  0     0  0
 22 23  1  0     0  0
 22 29  1  0     0  0
 23 31  1  0     0  0
 24 27  2  0     0  0
 24 28  1  0     0  0
 24 33  1  0     0  0
 25 27  1  0     0  0
 26 28  2  0     0  0
 30 35  1  0     0  0
 34 36  1  0     0  0
 36 37  1  0     0  0
 37 38  1  0     0  0
M  END
> <standard_type>
pIC50

> <# Confs.>
25

> <canonical_smiles>
ClC(N=C1CCCC)=C(CC(OC)=O)N1CC2=CC=C(NC(C3=C(F)C(F)=C(F)C(F)=C3C(O)=O)=O)C=C2

> <standard_relation>
=

> <Publication_ID>
nan

> <predicted_activity_value>
5.698970004336019

> <actual_activity_value>
6.102372908709558

> <Compound>
15

> <standard_units>
nM

> hash
7635010759574249356

$$$$
15_
XXILIB    08252103443D 0   0.00000     0.00000

 38 40  0     1  0            999 V2000
    5.0074    1.4914    0.0122 Cl  0  0  0  0  0  1           0  0  0
   -4.3157    0.0840   11.2636 F   0  0  0  0  0  1           0  0  0
   -1.6320    0.5111   11.0541 F   0  0  0  0  0  1           0  0  0
   -5.7437   -0.7449    9.1058 F   0  0  0  0  0  1           0  0  0
   -0.3603    0.1102    8.6874 F   0  0  0  0  0  1           0  0  0
   -5.1317   -0.4578    5.8206 O   0  0  0  0  0  2           0  0  0
    1.3076    2.2969   -2.3580 O   0  0  0  0  0  2           0  0  0
   -0.7705   -1.5642    6.3330 O   0  0  0  0  0  2           0  0  0
    1.7780    4.3683   -1.4592 O   0  0  0  0  0  2           0  0  0
   -4.6157   -2.5509    6.5618 O   0  0  0  0  0  2           0  0  0
    1.4523   -0.0000   -0.0000 N   0  0  0  0  0  3           0  0  0
    3.5393   -0.7630    0.0025 N   0  0  0  0  0  3           0  0  0
   -2.1145    0.0251    5.3156 N   0  0  0  0  0  3           0  0  0
    3.5500    0.6068    0.0019 C   0  0  0  0  0  4           0  0  0
   -3.6968   -0.1142   10.0923 C   0  0  0  0  0  4           0  0  0
   -2.3290    0.1033    9.9854 C   0  0  0  0  0  4           0  0  0
   -4.4245   -0.5377    8.9865 C   0  0  0  0  0  4           0  0  0
   -1.6807   -0.1047    8.7734 C   0  0  0  0  0  4           0  0  0
    2.2690   -1.1150    0.0000 C   0  0  0  0  0  4           0  0  0
    2.2653    1.1171   -0.0044 C   0  0  0  0  0  4           0  0  0
   -1.5713   -0.0140    4.0168 C   0  0  0  0  0  4           0  0  0
   -3.7823   -0.7439    7.7650 C   0  0  0  0  0  4           0  0  0
   -2.4026   -0.5358    7.6596 C   0  0  0  0  0  4           0  0  0
   -0.5425    0.0000    1.3966 C   0  0  0  0  0  4           0  0  0
   -0.5131   -0.8610    3.6718 C   0  0  0  0  0  4           0  0  0
   -2.1190    0.8324    3.0474 C   0  0  0  0  0  4           0  0  0
   -0.0051   -0.8533    2.3696 C   0  0  0  0  0  4           0  0  0
   -1.6100    0.8369    1.7464 C   0  0  0  0  0  4           0  0  0
   -4.5797   -1.2007    6.6144 C   0  0  0  0  0  4           0  0  0
    1.5991    3.0185   -1.4121 C   0  0  0  0  0  4           0  0  0
   -1.6846   -0.7436    6.3793 C   0  0  0  0  0  4           0  0  0
    1.6014    4.9660   -2.7474 C   0  0  0  0  0  4           0  0  0
    0.0000    0.0000    0.0000 C   0  0  0  0  0  4           0  0  0
    1.7865   -2.5211    0.0017 C   0  0  0  0  0  4           0  0  0
    1.7775    2.5193   -0.0058 C   0  0  0  0  0  4           0  0  0
    2.5400   -3.3953   -0.9956 C   0  0  0  0  0  4           0  0  0
    2.4284   -2.9304   -2.4480 C   0  0  0  0  0  4           0  0  0
    3.1910   -3.8241   -3.4146 C   0  0  0  0  0  4           0  0  0
  1 14  1  0     0  0
  2 15  1  0     0  0
  3 16  1  0     0  0
  4 17  1  0     0  0
  5 18  1  0     0  0
  6 29  2  0     0  0
  7 30  2  0     0  0
  8 31  2  0     0  0
  9 30  1  0     0  0
  9 32  1  0     0  0
 10 29  1  0     0  0
 11 19  1  0     0  0
 11 20  1  0     0  0
 11 33  1  0     0  0
 12 14  1  0     0  0
 12 19  2  0     0  0
 13 21  1  0     0  0
 13 31  1  0     0  0
 14 20  2  0     0  0
 15 16  2  0     0  0
 15 17  1  0     0  0
 16 18  1  0     0  0
 17 22  2  0     0  0
 18 23  2  0     0  0
 19 34  1  0     0  0
 20 35  1  0     0  0
 21 25  2  0     0  0
 21 26  1  0     0  0
 22 23  1  0     0  0
 22 29  1  0     0  0
 23 31  1  0     0  0
 24 27  2  0     0  0
 24 28  1  0     0  0
 24 33  1  0     0  0
 25 27  1  0     0  0
 26 28  2  0     0  0
 30 35  1  0     0  0
 34 36  1  0     0  0
 36 37  1  0     0  0
 37 38  1  0     0  0
M  END
> <standard_type>
pIC50

> <# Confs.>
25

> <canonical_smiles>
ClC(N=C1CCCC)=C(CC(OC)=O)N1CC2=CC=C(NC(C3=C(F)C(F)=C(F)C(F)=C3C(O)=O)=O)C=C2

> <standard_relation>
=

> <Publication_ID>
nan

> <predicted_activity_value>
5.698970004336019

> <actual_activity_value>
6.102372908709558

> <Compound>
15

> <standard_units>
nM

> hash
7635010759574249356

$$$$
15_
XXILIB    08252103443D 0   0.00000     0.00000

 38 40  0     1  0            999 V2000
    5.0074    1.4914    0.0122 Cl  0  0  0  0  0  1           0  0  0
   -4.3963   -0.1510   11.2041 F   0  0  0  0  0  1           0  0  0
   -4.8230   -1.8497    9.1157 F   0  0  0  0  0  1           0  0  0
   -2.9826    2.1404   10.8395 F   0  0  0  0  0  1           0  0  0
   -3.8407   -1.2667    6.6511 F   0  0  0  0  0  1           0  0  0
   -2.3690    3.9870    8.5810 O   0  0  0  0  0  2           0  0  0
    1.3076    2.2969   -2.3580 O   0  0  0  0  0  2           0  0  0
   -2.2457    2.2197    5.7599 O   0  0  0  0  0  2           0  0  0
    1.7780    4.3683   -1.4592 O   0  0  0  0  0  2           0  0  0
   -0.6557    2.6215    7.9513 O   0  0  0  0  0  2           0  0  0
    1.4523   -0.0000   -0.0000 N   0  0  0  0  0  3           0  0  0
    3.5393   -0.7630    0.0025 N   0  0  0  0  0  3           0  0  0
   -2.0575   -0.0505    5.3378 N   0  0  0  0  0  3           0  0  0
    3.5500    0.6068    0.0019 C   0  0  0  0  0  4           0  0  0
   -3.9068    0.1432    9.9925 C   0  0  0  0  0  4           0  0  0
   -4.1242   -0.7224    8.9280 C   0  0  0  0  0  4           0  0  0
   -3.1827    1.3143    9.8028 C   0  0  0  0  0  4           0  0  0
   -3.6219   -0.4203    7.6674 C   0  0  0  0  0  4           0  0  0
    2.2690   -1.1150    0.0000 C   0  0  0  0  0  4           0  0  0
    2.2653    1.1171   -0.0044 C   0  0  0  0  0  4           0  0  0
   -1.5459    0.0027    4.0267 C   0  0  0  0  0  4           0  0  0
   -2.6708    1.6224    8.5418 C   0  0  0  0  0  4           0  0  0
   -2.8992    0.7564    7.4668 C   0  0  0  0  0  4           0  0  0
   -0.5425    0.0000    1.3966 C   0  0  0  0  0  4           0  0  0
   -1.3002    1.2107    3.3661 C   0  0  0  0  0  4           0  0  0
   -1.2805   -1.2050    3.3731 C   0  0  0  0  0  4           0  0  0
   -0.8005    1.2067    2.0607 C   0  0  0  0  0  4           0  0  0
   -0.7799   -1.2058    2.0689 C   0  0  0  0  0  4           0  0  0
   -1.9151    2.8748    8.3715 C   0  0  0  0  0  4           0  0  0
    1.5991    3.0185   -1.4121 C   0  0  0  0  0  4           0  0  0
   -2.3714    1.0488    6.1125 C   0  0  0  0  0  4           0  0  0
    1.6014    4.9660   -2.7474 C   0  0  0  0  0  4           0  0  0
    0.0000    0.0000   -0.0000 C   0  0  0  0  0  4           0  0  0
    1.7865   -2.5211    0.0017 C   0  0  0  0  0  4           0  0  0
    1.7775    2.5193   -0.0058 C   0  0  0  0  0  4           0  0  0
    2.5400   -3.3953   -0.9956 C   0  0  0  0  0  4           0  0  0
    2.4284   -2.9304   -2.4480 C   0  0  0  0  0  4           0  0  0
    3.1910   -3.8241   -3.4146 C   0  0  0  0  0  4           0  0  0
  1 14  1  0     0  0
  2 15  1  0     0  0
  3 16  1  0     0  0
  4 17  1  0     0  0
  5 18  1  0     0  0
  6 29  2  0     0  0
  7 30  2  0     0  0
  8 31  2  0     0  0
  9 30  1  0     0  0
  9 32  1  0     0  0
 10 29  1  0     0  0
 11 19  1  0     0  0
 11 20  1  0     0  0
 11 33  1  0     0  0
 12 14  1  0     0  0
 12 19  2  0     0  0
 13 21  1  0     0  0
 13 31  1  0     0  0
 14 20  2  0     0  0
 15 16  2  0     0  0
 15 17  1  0     0  0
 16 18  1  0     0  0
 17 22  2  0     0  0
 18 23  2  0     0  0
 19 34  1  0     0  0
 20 35  1  0     0  0
 21 25  2  0     0  0
 21 26  1  0     0  0
 22 23  1  0     0  0
 22 29  1  0     0  0
 23 31  1  0     0  0
 24 27  2  0     0  0
 24 28  1  0     0  0
 24 33  1  0     0  0
 25 27  1  0     0  0
 26 28  2  0     0  0
 30 35  1  0     0  0
 34 36  1  0     0  0
 36 37  1  0     0  0
 37 38  1  0     0  0
M  END
> <standard_type>
pIC50

> <# Confs.>
25

> <canonical_smiles>
ClC(N=C1CCCC)=C(CC(OC)=O)N1CC2=CC=C(NC(C3=C(F)C(F)=C(F)C(F)=C3C(O)=O)=O)C=C2

> <standard_relation>
=

> <Publication_ID>
nan

> <predicted_activity_value>
5.698970004336019

> <actual_activity_value>
6.102372908709558

> <Compound>
15

> <standard_units>
nM

> hash
7635010759574249356

$$$$
15_
XXILIB    08252103443D 0   0.00000     0.00000

 38 40  0     1  0            999 V2000
    5.0074   -1.4914   -0.0122 Cl  0  0  0  0  0  1           0  0  0
   -4.3157    0.0840   11.2636 F   0  0  0  0  0  1           0  0  0
   -1.6320    0.5111   11.0541 F   0  0  0  0  0  1           0  0  0
   -5.7437   -0.7449    9.1058 F   0  0  0  0  0  1           0  0  0
   -0.3603    0.1102    8.6874 F   0  0  0  0  0  1           0  0  0
   -5.1317   -0.4578    5.8206 O   0  0  0  0  0  2           0  0  0
    0.8532   -2.5127   -2.2188 O   0  0  0  0  0  2           0  0  0
   -0.7705   -1.5642    6.3330 O   0  0  0  0  0  2           0  0  0
    2.4242   -4.0915   -1.6193 O   0  0  0  0  0  2           0  0  0
   -4.6157   -2.5509    6.5618 O   0  0  0  0  0  2           0  0  0
    1.4523   -0.0000   -0.0000 N   0  0  0  0  0  3           0  0  0
    3.5393    0.7630   -0.0025 N   0  0  0  0  0  3           0  0  0
   -2.1145    0.0251    5.3156 N   0  0  0  0  0  3           0  0  0
    3.5500   -0.6068   -0.0019 C   0  0  0  0  0  4           0  0  0
   -3.6968   -0.1142   10.0923 C   0  0  0  0  0  4           0  0  0
   -2.3290    0.1033    9.9854 C   0  0  0  0  0  4           0  0  0
   -4.4245   -0.5377    8.9865 C   0  0  0  0  0  4           0  0  0
   -1.6807   -0.1047    8.7734 C   0  0  0  0  0  4           0  0  0
    2.2690    1.1150    0.0000 C   0  0  0  0  0  4           0  0  0
    2.2653   -1.1171    0.0044 C   0  0  0  0  0  4           0  0  0
   -1.5713   -0.0140    4.0168 C   0  0  0  0  0  4           0  0  0
   -3.7823   -0.7439    7.7650 C   0  0  0  0  0  4           0  0  0
   -2.4026   -0.5358    7.6596 C   0  0  0  0  0  4           0  0  0
   -0.5425    0.0000    1.3966 C   0  0  0  0  0  4           0  0  0
   -0.5131   -0.8610    3.6718 C   0  0  0  0  0  4           0  0  0
   -2.1190    0.8324    3.0474 C   0  0  0  0  0  4           0  0  0
   -0.0051   -0.8533    2.3696 C   0  0  0  0  0  4           0  0  0
   -1.6100    0.8369    1.7464 C   0  0  0  0  0  4           0  0  0
   -4.5797   -1.2007    6.6144 C   0  0  0  0  0  4           0  0  0
    1.6067   -3.0240   -1.3996 C   0  0  0  0  0  4           0  0  0
   -1.6846   -0.7436    6.3793 C   0  0  0  0  0  4           0  0  0
    2.3730   -4.6418   -2.9394 C   0  0  0  0  0  4           0  0  0
    0.0000    0.0000    0.0000 C   0  0  0  0  0  4           0  0  0
    1.7865    2.5211   -0.0017 C   0  0  0  0  0  4           0  0  0
    1.7775   -2.5193    0.0058 C   0  0  0  0  0  4           0  0  0
    1.5995    3.0696   -1.4127 C   0  0  0  0  0  4           0  0  0
    1.1036    4.5150   -1.4641 C   0  0  0  0  0  4           0  0  0
    0.9283    5.0294   -2.8851 C   0  0  0  0  0  4           0  0  0
  1 14  1  0     0  0
  2 15  1  0     0  0
  3 16  1  0     0  0
  4 17  1  0     0  0
  5 18  1  0     0  0
  6 29  2  0     0  0
  7 30  2  0     0  0
  8 31  2  0     0  0
  9 30  1  0     0  0
  9 32  1  0     0  0
 10 29  1  0     0  0
 11 19  1  0     0  0
 11 20  1  0     0  0
 11 33  1  0     0  0
 12 14  1  0     0  0
 12 19  2  0     0  0
 13 21  1  0     0  0
 13 31  1  0     0  0
 14 20  2  0     0  0
 15 16  2  0     0  0
 15 17  1  0     0  0
 16 18  1  0     0  0
 17 22  2  0     0  0
 18 23  2  0     0  0
 19 34  1  0     0  0
 20 35  1  0     0  0
 21 25  2  0     0  0
 21 26  1  0     0  0
 22 23  1  0     0  0
 22 29  1  0     0  0
 23 31  1  0     0  0
 24 27  2  0     0  0
 24 28  1  0     0  0
 24 33  1  0     0  0
 25 27  1  0     0  0
 26 28  2  0     0  0
 30 35  1  0     0  0
 34 36  1  0     0  0
 36 37  1  0     0  0
 37 38  1  0     0  0
M  END
> <standard_type>
pIC50

> <# Confs.>
25

> <canonical_smiles>
ClC(N=C1CCCC)=C(CC(OC)=O)N1CC2=CC=C(NC(C3=C(F)C(F)=C(F)C(F)=C3C(O)=O)=O)C=C2

> <standard_relation>
=

> <Publication_ID>
nan

> <predicted_activity_value>
5.698970004336019

> <actual_activity_value>
6.102372908709558

> <Compound>
15

> <standard_units>
nM

> hash
7635010759574249356

$$$$
15_
XXILIB    08252103443D 0   0.00000     0.00000

 38 40  0     1  0            999 V2000
    5.0074   -1.4914   -0.0122 Cl  0  0  0  0  0  1           0  0  0
   -4.4171   -0.0588   11.2299 F   0  0  0  0  0  1           0  0  0
   -4.3821   -2.4904    9.9992 F   0  0  0  0  0  1           0  0  0
   -3.1254    2.0578   10.1191 F   0  0  0  0  0  1           0  0  0
   -3.0575   -2.8196    7.6505 F   0  0  0  0  0  1           0  0  0
   -2.2426    2.6581    6.9347 O   0  0  0  0  0  2           0  0  0
    1.3203   -2.3060   -2.3498 O   0  0  0  0  0  2           0  0  0
   -0.7705   -1.5642    6.3330 O   0  0  0  0  0  2           0  0  0
    1.8453   -4.3643   -1.4510 O   0  0  0  0  0  2           0  0  0
   -0.4535    1.9565    8.1609 O   0  0  0  0  0  2           0  0  0
    1.4523   -0.0000   -0.0000 N   0  0  0  0  0  3           0  0  0
    3.5393    0.7630   -0.0025 N   0  0  0  0  0  3           0  0  0
   -2.1145    0.0251    5.3156 N   0  0  0  0  0  3           0  0  0
    3.5500   -0.6068   -0.0019 C   0  0  0  0  0  4           0  0  0
   -3.7599   -0.2128   10.0729 C   0  0  0  0  0  4           0  0  0
   -3.7421   -1.4521    9.4455 C   0  0  0  0  0  4           0  0  0
   -3.0977    0.8677    9.5024 C   0  0  0  0  0  4           0  0  0
   -3.0650   -1.6169    8.2426 C   0  0  0  0  0  4           0  0  0
    2.2690    1.1150    0.0000 C   0  0  0  0  0  4           0  0  0
    2.2653   -1.1171    0.0044 C   0  0  0  0  0  4           0  0  0
   -1.5713   -0.0140    4.0168 C   0  0  0  0  0  4           0  0  0
   -2.4115    0.7094    8.2978 C   0  0  0  0  0  4           0  0  0
   -2.4026   -0.5358    7.6596 C   0  0  0  0  0  4           0  0  0
   -0.5425    0.0000    1.3966 C   0  0  0  0  0  4           0  0  0
   -0.5131   -0.8610    3.6718 C   0  0  0  0  0  4           0  0  0
   -2.1190    0.8324    3.0474 C   0  0  0  0  0  4           0  0  0
   -0.0051   -0.8533    2.3696 C   0  0  0  0  0  4           0  0  0
   -1.6100    0.8369    1.7464 C   0  0  0  0  0  4           0  0  0
   -1.7269    1.8756    7.7147 C   0  0  0  0  0  4           0  0  0
    1.6067   -3.0240   -1.3996 C   0  0  0  0  0  4           0  0  0
   -1.6846   -0.7436    6.3793 C   0  0  0  0  0  4           0  0  0
    1.7436   -4.9561   -2.7500 C   0  0  0  0  0  4           0  0  0
    0.0000    0.0000    0.0000 C   0  0  0  0  0  4           0  0  0
    1.7865    2.5211   -0.0017 C   0  0  0  0  0  4           0  0  0
    1.7775   -2.5193    0.0058 C   0  0  0  0  0  4           0  0  0
    1.5995    3.0696   -1.4127 C   0  0  0  0  0  4           0  0  0
    2.8739    3.0775   -2.2575 C   0  0  0  0  0  4           0  0  0
    2.6514    3.6302   -3.6574 C   0  0  0  0  0  4           0  0  0
  1 14  1  0     0  0
  2 15  1  0     0  0
  3 16  1  0     0  0
  4 17  1  0     0  0
  5 18  1  0     0  0
  6 29  2  0     0  0
  7 30  2  0     0  0
  8 31  2  0     0  0
  9 30  1  0     0  0
  9 32  1  0     0  0
 10 29  1  0     0  0
 11 19  1  0     0  0
 11 20  1  0     0  0
 11 33  1  0     0  0
 12 14  1  0     0  0
 12 19  2  0     0  0
 13 21  1  0     0  0
 13 31  1  0     0  0
 14 20  2  0     0  0
 15 16  2  0     0  0
 15 17  1  0     0  0
 16 18  1  0     0  0
 17 22  2  0     0  0
 18 23  2  0     0  0
 19 34  1  0     0  0
 20 35  1  0     0  0
 21 25  2  0     0  0
 21 26  1  0     0  0
 22 23  1  0     0  0
 22 29  1  0     0  0
 23 31  1  0     0  0
 24 27  2  0     0  0
 24 28  1  0     0  0
 24 33  1  0     0  0
 25 27  1  0     0  0
 26 28  2  0     0  0
 30 35  1  0     0  0
 34 36  1  0     0  0
 36 37  1  0     0  0
 37 38  1  0     0  0
M  END
> <standard_type>
pIC50

> <# Confs.>
25

> <canonical_smiles>
ClC(N=C1CCCC)=C(CC(OC)=O)N1CC2=CC=C(NC(C3=C(F)C(F)=C(F)C(F)=C3C(O)=O)=O)C=C2

> <standard_relation>
=

> <Publication_ID>
nan

> <predicted_activity_value>
5.698970004336019

> <actual_activity_value>
6.102372908709558

> <Compound>
15

> <standard_units>
nM

> hash
7635010759574249356

$$$$
15_
XXILIB    08252103443D 0   0.00000     0.00000

 38 40  0     1  0            999 V2000
    5.0074    1.4914    0.0122 Cl  0  0  0  0  0  1           0  0  0
   -4.4597   -0.0200   11.2076 F   0  0  0  0  0  1           0  0  0
   -5.9175    1.3933    9.3894 F   0  0  0  0  0  1           0  0  0
   -1.9800   -0.9276   10.5679 F   0  0  0  0  0  1           0  0  0
   -4.9042    1.9090    6.9223 F   0  0  0  0  0  1           0  0  0
   -0.5720   -1.5684    7.5919 O   0  0  0  0  0  2           0  0  0
    1.3076    2.2969   -2.3580 O   0  0  0  0  0  2           0  0  0
   -2.2457    2.2197    5.7599 O   0  0  0  0  0  2           0  0  0
    1.7780    4.3683   -1.4592 O   0  0  0  0  0  2           0  0  0
    0.1312    0.4415    8.4057 O   0  0  0  0  0  2           0  0  0
    1.4523   -0.0000   -0.0000 N   0  0  0  0  0  3           0  0  0
    3.5393   -0.7630    0.0025 N   0  0  0  0  0  3           0  0  0
   -2.0575   -0.0505    5.3378 N   0  0  0  0  0  3           0  0  0
    3.5500    0.6068    0.0019 C   0  0  0  0  0  4           0  0  0
   -3.9532    0.2282    9.9927 C   0  0  0  0  0  4           0  0  0
   -4.6961    0.9486    9.0659 C   0  0  0  0  0  4           0  0  0
   -2.6853   -0.2352    9.6621 C   0  0  0  0  0  4           0  0  0
   -4.1739    1.2126    7.8049 C   0  0  0  0  0  4           0  0  0
    2.2690   -1.1150    0.0000 C   0  0  0  0  0  4           0  0  0
    2.2653    1.1171   -0.0044 C   0  0  0  0  0  4           0  0  0
   -1.5459    0.0027    4.0267 C   0  0  0  0  0  4           0  0  0
   -2.1560    0.0212    8.3968 C   0  0  0  0  0  4           0  0  0
   -2.8992    0.7564    7.4668 C   0  0  0  0  0  4           0  0  0
   -0.5425    0.0000    1.3966 C   0  0  0  0  0  4           0  0  0
   -1.3002    1.2107    3.3661 C   0  0  0  0  0  4           0  0  0
   -1.2805   -1.2050    3.3731 C   0  0  0  0  0  4           0  0  0
   -0.8005    1.2067    2.0607 C   0  0  0  0  0  4           0  0  0
   -0.7799   -1.2058    2.0689 C   0  0  0  0  0  4           0  0  0
   -0.8065   -0.4760    8.0801 C   0  0  0  0  0  4           0  0  0
    1.5991    3.0185   -1.4121 C   0  0  0  0  0  4           0  0  0
   -2.3714    1.0488    6.1125 C   0  0  0  0  0  4           0  0  0
    1.6014    4.9660   -2.7474 C   0  0  0  0  0  4           0  0  0
    0.0000    0.0000   -0.0000 C   0  0  0  0  0  4           0  0  0
    1.7865   -2.5211    0.0017 C   0  0  0  0  0  4           0  0  0
    1.7775    2.5193   -0.0058 C   0  0  0  0  0  4           0  0  0
    2.5400   -3.3953   -0.9956 C   0  0  0  0  0  4           0  0  0
    2.4284   -2.9304   -2.4480 C   0  0  0  0  0  4           0  0  0
    3.1910   -3.8241   -3.4146 C   0  0  0  0  0  4           0  0  0
  1 14  1  0     0  0
  2 15  1  0     0  0
  3 16  1  0     0  0
  4 17  1  0     0  0
  5 18  1  0     0  0
  6 29  2  0     0  0
  7 30  2  0     0  0
  8 31  2  0     0  0
  9 30  1  0     0  0
  9 32  1  0     0  0
 10 29  1  0     0  0
 11 19  1  0     0  0
 11 20  1  0     0  0
 11 33  1  0     0  0
 12 14  1  0     0  0
 12 19  2  0     0  0
 13 21  1  0     0  0
 13 31  1  0     0  0
 14 20  2  0     0  0
 15 16  2  0     0  0
 15 17  1  0     0  0
 16 18  1  0     0  0
 17 22  2  0     0  0
 18 23  2  0     0  0
 19 34  1  0     0  0
 20 35  1  0     0  0
 21 25  2  0     0  0
 21 26  1  0     0  0
 22 23  1  0     0  0
 22 29  1  0     0  0
 23 31  1  0     0  0
 24 27  2  0     0  0
 24 28  1  0     0  0
 24 33  1  0     0  0
 25 27  1  0     0  0
 26 28  2  0     0  0
 30 35  1  0     0  0
 34 36  1  0     0  0
 36 37  1  0     0  0
 37 38  1  0     0  0
M  END
> <standard_type>
pIC50

> <# Confs.>
25

> <canonical_smiles>
ClC(N=C1CCCC)=C(CC(OC)=O)N1CC2=CC=C(NC(C3=C(F)C(F)=C(F)C(F)=C3C(O)=O)=O)C=C2

> <standard_relation>
=

> <Publication_ID>
nan

> <predicted_activity_value>
5.698970004336019

> <actual_activity_value>
6.102372908709558

> <Compound>
15

> <standard_units>
nM

> hash
7635010759574249356

$$$$
15_
XXILIB    08252103443D 0   0.00000     0.00000

 38 40  0     1  0            999 V2000
    5.0074   -1.4914   -0.0122 Cl  0  0  0  0  0  1           0  0  0
   -4.4243    0.0510   11.2271 F   0  0  0  0  0  1           0  0  0
   -6.2709    0.4640    9.2655 F   0  0  0  0  0  1           0  0  0
   -1.9071   -0.7508   10.5924 F   0  0  0  0  0  1           0  0  0
   -5.6114    0.0798    6.6584 F   0  0  0  0  0  1           0  0  0
   -0.7223   -2.3465    7.8905 O   0  0  0  0  0  2           0  0  0
    1.3203   -2.3060   -2.3498 O   0  0  0  0  0  2           0  0  0
   -3.6966   -1.5750    5.1963 O   0  0  0  0  0  2           0  0  0
    1.8453   -4.3643   -1.4510 O   0  0  0  0  0  2           0  0  0
   -0.2795   -0.1134    7.7727 O   0  0  0  0  0  2           0  0  0
    1.4523   -0.0000   -0.0000 N   0  0  0  0  0  3           0  0  0
    3.5393    0.7630   -0.0025 N   0  0  0  0  0  3           0  0  0
   -2.0480    0.0462    5.3415 N   0  0  0  0  0  3           0  0  0
    3.5500   -0.6068   -0.0019 C   0  0  0  0  0  4           0  0  0
   -4.0913   -0.1426    9.9442 C   0  0  0  0  0  4           0  0  0
   -5.0323    0.0679    8.9443 C   0  0  0  0  0  4           0  0  0
   -2.8046   -0.5534    9.6163 C   0  0  0  0  0  4           0  0  0
   -4.6911   -0.1277    7.6109 C   0  0  0  0  0  4           0  0  0
    2.2690    1.1150    0.0000 C   0  0  0  0  0  4           0  0  0
    2.2653   -1.1171    0.0044 C   0  0  0  0  0  4           0  0  0
   -1.5748    0.0102    4.0154 C   0  0  0  0  0  4           0  0  0
   -2.4556   -0.7568    8.2806 C   0  0  0  0  0  4           0  0  0
   -3.3998   -0.5340    7.2723 C   0  0  0  0  0  4           0  0  0
   -0.5425    0.0000    1.3966 C   0  0  0  0  0  4           0  0  0
   -2.1092   -0.8512    3.0518 C   0  0  0  0  0  4           0  0  0
   -0.5305    0.8717    3.6644 C   0  0  0  0  0  4           0  0  0
   -1.5959   -0.8533    1.7517 C   0  0  0  0  0  4           0  0  0
   -0.0204    0.8683    2.3639 C   0  0  0  0  0  4           0  0  0
   -1.0820   -1.1838    7.9652 C   0  0  0  0  0  4           0  0  0
    1.6067   -3.0240   -1.3996 C   0  0  0  0  0  4           0  0  0
   -3.0672   -0.7396    5.8422 C   0  0  0  0  0  4           0  0  0
    1.7436   -4.9561   -2.7500 C   0  0  0  0  0  4           0  0  0
    0.0000    0.0000    0.0000 C   0  0  0  0  0  4           0  0  0
    1.7865    2.5211   -0.0017 C   0  0  0  0  0  4           0  0  0
    1.7775   -2.5193    0.0058 C   0  0  0  0  0  4           0  0  0
    2.5423    3.3936   -0.9988 C   0  0  0  0  0  4           0  0  0
    2.4340    2.9263   -2.4506 C   0  0  0  0  0  4           0  0  0
    3.1988    3.8184   -3.4171 C   0  0  0  0  0  4           0  0  0
  1 14  1  0     0  0
  2 15  1  0     0  0
  3 16  1  0     0  0
  4 17  1  0     0  0
  5 18  1  0     0  0
  6 29  2  0     0  0
  7 30  2  0     0  0
  8 31  2  0     0  0
  9 30  1  0     0  0
  9 32  1  0     0  0
 10 29  1  0     0  0
 11 19  1  0     0  0
 11 20  1  0     0  0
 11 33  1  0     0  0
 12 14  1  0     0  0
 12 19  2  0     0  0
 13 21  1  0     0  0
 13 31  1  0     0  0
 14 20  2  0     0  0
 15 16  2  0     0  0
 15 17  1  0     0  0
 16 18  1  0     0  0
 17 22  2  0     0  0
 18 23  2  0     0  0
 19 34  1  0     0  0
 20 35  1  0     0  0
 21 25  2  0     0  0
 21 26  1  0     0  0
 22 23  1  0     0  0
 22 29  1  0     0  0
 23 31  1  0     0  0
 24 27  2  0     0  0
 24 28  1  0     0  0
 24 33  1  0     0  0
 25 27  1  0     0  0
 26 28  2  0     0  0
 30 35  1  0     0  0
 34 36  1  0     0  0
 36 37  1  0     0  0
 37 38  1  0     0  0
M  END
> <standard_type>
pIC50

> <# Confs.>
25

> <canonical_smiles>
ClC(N=C1CCCC)=C(CC(OC)=O)N1CC2=CC=C(NC(C3=C(F)C(F)=C(F)C(F)=C3C(O)=O)=O)C=C2

> <standard_relation>
=

> <Publication_ID>
nan

> <predicted_activity_value>
5.698970004336019

> <actual_activity_value>
6.102372908709558

> <Compound>
15

> <standard_units>
nM

> hash
7635010759574249356

$$$$
15_
XXILIB    08252103443D 0   0.00000     0.00000

 38 40  0     1  0            999 V2000
    5.0074   -1.4914   -0.0122 Cl  0  0  0  0  0  1           0  0  0
   -4.2893   -0.0557   11.2738 F   0  0  0  0  0  1           0  0  0
   -3.4686   -2.4815   10.3407 F   0  0  0  0  0  1           0  0  0
   -4.5209    2.0567    9.5808 F   0  0  0  0  0  1           0  0  0
   -2.8768   -2.8099    7.7099 F   0  0  0  0  0  1           0  0  0
   -3.0642    2.6759    6.6238 O   0  0  0  0  0  2           0  0  0
    2.2699   -2.6316    2.3613 O   0  0  0  0  0  2           0  0  0
   -3.6966   -1.5750    5.1963 O   0  0  0  0  0  2           0  0  0
    0.5803   -3.9214    1.4659 O   0  0  0  0  0  2           0  0  0
   -5.1977    1.9265    6.3357 O   0  0  0  0  0  2           0  0  0
    1.4523   -0.0000    0.0000 N   0  0  0  0  0  3           0  0  0
    3.5393    0.7630   -0.0025 N   0  0  0  0  0  3           0  0  0
   -2.0480    0.0462    5.3415 N   0  0  0  0  0  3           0  0  0
    3.5500   -0.6068   -0.0019 C   0  0  0  0  0  4           0  0  0
   -3.9976   -0.2085    9.9755 C   0  0  0  0  0  4           0  0  0
   -3.5795   -1.4448    9.4997 C   0  0  0  0  0  4           0  0  0
   -4.1145    0.8703    9.1070 C   0  0  0  0  0  4           0  0  0
   -3.2792   -1.6102    8.1524 C   0  0  0  0  0  4           0  0  0
    2.2690    1.1150    0.0000 C   0  0  0  0  0  4           0  0  0
    2.2653   -1.1171    0.0044 C   0  0  0  0  0  4           0  0  0
   -1.5748    0.0102    4.0154 C   0  0  0  0  0  4           0  0  0
   -3.8102    0.7139    7.7542 C   0  0  0  0  0  4           0  0  0
   -3.3998   -0.5340    7.2723 C   0  0  0  0  0  4           0  0  0
   -0.5425    0.0000    1.3966 C   0  0  0  0  0  4           0  0  0
   -2.1092   -0.8512    3.0518 C   0  0  0  0  0  4           0  0  0
   -0.5305    0.8717    3.6644 C   0  0  0  0  0  4           0  0  0
   -1.5959   -0.8533    1.7517 C   0  0  0  0  0  4           0  0  0
   -0.0204    0.8683    2.3639 C   0  0  0  0  0  4           0  0  0
   -3.9522    1.8739    6.8581 C   0  0  0  0  0  4           0  0  0
    1.5991   -3.0185    1.4121 C   0  0  0  0  0  4           0  0  0
   -3.0672   -0.7396    5.8422 C   0  0  0  0  0  4           0  0  0
    0.2936   -4.4461    2.7660 C   0  0  0  0  0  4           0  0  0
    0.0000    0.0000    0.0000 C   0  0  0  0  0  4           0  0  0
    1.7865    2.5211   -0.0017 C   0  0  0  0  0  4           0  0  0
    1.7775   -2.5193    0.0058 C   0  0  0  0  0  4           0  0  0
    2.5423    3.3936   -0.9988 C   0  0  0  0  0  4           0  0  0
    2.4340    2.9263   -2.4506 C   0  0  0  0  0  4           0  0  0
    3.1988    3.8184   -3.4171 C   0  0  0  0  0  4           0  0  0
  1 14  1  0     0  0
  2 15  1  0     0  0
  3 16  1  0     0  0
  4 17  1  0     0  0
  5 18  1  0     0  0
  6 29  2  0     0  0
  7 30  2  0     0  0
  8 31  2  0     0  0
  9 30  1  0     0  0
  9 32  1  0     0  0
 10 29  1  0     0  0
 11 19  1  0     0  0
 11 20  1  0     0  0
 11 33  1  0     0  0
 12 14  1  0     0  0
 12 19  2  0     0  0
 13 21  1  0     0  0
 13 31  1  0     0  0
 14 20  2  0     0  0
 15 16  2  0     0  0
 15 17  1  0     0  0
 16 18  1  0     0  0
 17 22  2  0     0  0
 18 23  2  0     0  0
 19 34  1  0     0  0
 20 35  1  0     0  0
 21 25  2  0     0  0
 21 26  1  0     0  0
 22 23  1  0     0  0
 22 29  1  0     0  0
 23 31  1  0     0  0
 24 27  2  0     0  0
 24 28  1  0     0  0
 24 33  1  0     0  0
 25 27  1  0     0  0
 26 28  2  0     0  0
 30 35  1  0     0  0
 34 36  1  0     0  0
 36 37  1  0     0  0
 37 38  1  0     0  0
M  END
> <standard_type>
pIC50

> <# Confs.>
25

> <canonical_smiles>
ClC(N=C1CCCC)=C(CC(OC)=O)N1CC2=CC=C(NC(C3=C(F)C(F)=C(F)C(F)=C3C(O)=O)=O)C=C2

> <standard_relation>
=

> <Publication_ID>
nan

> <predicted_activity_value>
5.698970004336019

> <actual_activity_value>
6.102372908709558

> <Compound>
15

> <standard_units>
nM

> hash
7635010759574249356

$$$$
15_
XXILIB    08252103443D 0   0.00000     0.00000

 38 40  0     1  0            999 V2000
    5.0074    1.4914    0.0122 Cl  0  0  0  0  0  1           0  0  0
   -4.3157    0.0840   11.2636 F   0  0  0  0  0  1           0  0  0
   -1.6320    0.5111   11.0541 F   0  0  0  0  0  1           0  0  0
   -5.7437   -0.7449    9.1058 F   0  0  0  0  0  1           0  0  0
   -0.3603    0.1102    8.6874 F   0  0  0  0  0  1           0  0  0
   -5.1317   -0.4578    5.8206 O   0  0  0  0  0  2           0  0  0
    0.8411    2.5041   -2.2253 O   0  0  0  0  0  2           0  0  0
   -0.7705   -1.5642    6.3330 O   0  0  0  0  0  2           0  0  0
    2.3702    4.1220   -1.6217 O   0  0  0  0  0  2           0  0  0
   -4.6157   -2.5509    6.5618 O   0  0  0  0  0  2           0  0  0
    1.4523   -0.0000   -0.0000 N   0  0  0  0  0  3           0  0  0
    3.5393   -0.7630    0.0025 N   0  0  0  0  0  3           0  0  0
   -2.1145    0.0251    5.3156 N   0  0  0  0  0  3           0  0  0
    3.5500    0.6068    0.0019 C   0  0  0  0  0  4           0  0  0
   -3.6968   -0.1142   10.0923 C   0  0  0  0  0  4           0  0  0
   -2.3290    0.1033    9.9854 C   0  0  0  0  0  4           0  0  0
   -4.4245   -0.5377    8.9865 C   0  0  0  0  0  4           0  0  0
   -1.6807   -0.1047    8.7734 C   0  0  0  0  0  4           0  0  0
    2.2690   -1.1150    0.0000 C   0  0  0  0  0  4           0  0  0
    2.2653    1.1171   -0.0044 C   0  0  0  0  0  4           0  0  0
   -1.5713   -0.0140    4.0168 C   0  0  0  0  0  4           0  0  0
   -3.7823   -0.7439    7.7650 C   0  0  0  0  0  4           0  0  0
   -2.4026   -0.5358    7.6596 C   0  0  0  0  0  4           0  0  0
   -0.5425    0.0000    1.3966 C   0  0  0  0  0  4           0  0  0
   -0.5131   -0.8610    3.6718 C   0  0  0  0  0  4           0  0  0
   -2.1190    0.8324    3.0474 C   0  0  0  0  0  4           0  0  0
   -0.0051   -0.8533    2.3696 C   0  0  0  0  0  4           0  0  0
   -1.6100    0.8369    1.7464 C   0  0  0  0  0  4           0  0  0
   -4.5797   -1.2007    6.6144 C   0  0  0  0  0  4           0  0  0
    1.5991    3.0185   -1.4121 C   0  0  0  0  0  4           0  0  0
   -1.6846   -0.7436    6.3793 C   0  0  0  0  0  4           0  0  0
    2.2603    4.7091   -2.9221 C   0  0  0  0  0  4           0  0  0
    0.0000    0.0000    0.0000 C   0  0  0  0  0  4           0  0  0
    1.7865   -2.5211    0.0017 C   0  0  0  0  0  4           0  0  0
    1.7775    2.5193   -0.0058 C   0  0  0  0  0  4           0  0  0
    1.5963   -3.0720   -1.4079 C   0  0  0  0  0  4           0  0  0
    1.1003   -4.5175   -1.4557 C   0  0  0  0  0  4           0  0  0
    0.9217   -5.0342   -2.8755 C   0  0  0  0  0  4           0  0  0
  1 14  1  0     0  0
  2 15  1  0     0  0
  3 16  1  0     0  0
  4 17  1  0     0  0
  5 18  1  0     0  0
  6 29  2  0     0  0
  7 30  2  0     0  0
  8 31  2  0     0  0
  9 30  1  0     0  0
  9 32  1  0     0  0
 10 29  1  0     0  0
 11 19  1  0     0  0
 11 20  1  0     0  0
 11 33  1  0     0  0
 12 14  1  0     0  0
 12 19  2  0     0  0
 13 21  1  0     0  0
 13 31  1  0     0  0
 14 20  2  0     0  0
 15 16  2  0     0  0
 15 17  1  0     0  0
 16 18  1  0     0  0
 17 22  2  0     0  0
 18 23  2  0     0  0
 19 34  1  0     0  0
 20 35  1  0     0  0
 21 25  2  0     0  0
 21 26  1  0     0  0
 22 23  1  0     0  0
 22 29  1  0     0  0
 23 31  1  0     0  0
 24 27  2  0     0  0
 24 28  1  0     0  0
 24 33  1  0     0  0
 25 27  1  0     0  0
 26 28  2  0     0  0
 30 35  1  0     0  0
 34 36  1  0     0  0
 36 37  1  0     0  0
 37 38  1  0     0  0
M  END
> <standard_type>
pIC50

> <# Confs.>
25

> <canonical_smiles>
ClC(N=C1CCCC)=C(CC(OC)=O)N1CC2=CC=C(NC(C3=C(F)C(F)=C(F)C(F)=C3C(O)=O)=O)C=C2

> <standard_relation>
=

> <Publication_ID>
nan

> <predicted_activity_value>
5.698970004336019

> <actual_activity_value>
6.102372908709558

> <Compound>
15

> <standard_units>
nM

> hash
7635010759574249356

$$$$
18_
XXILIB    08252103443D 0   0.00000     0.00000

 29 31  0     1  0            999 V2000
    5.0074    1.4914    0.0122 Cl  0  0  0  0  0  1           0  0  0
   -4.6735    2.1449    8.8796 O   0  0  0  0  0  2           0  0  0
    0.7328    2.5851   -0.9651 O   0  0  0  0  0  2           0  0  0
   -4.4613    3.0328    6.7911 O   0  0  0  0  0  2           0  0  0
    1.4523    0.0000    0.0000 N   0  0  0  0  0  3           0  0  0
    3.5393   -0.7630    0.0025 N   0  0  0  0  0  3           0  0  0
    3.5500    0.6068    0.0019 C   0  0  0  0  0  4           0  0  0
    2.2690   -1.1150    0.0000 C   0  0  0  0  0  4           0  0  0
    2.2653    1.1171   -0.0044 C   0  0  0  0  0  4           0  0  0
   -2.0363   -0.0014    5.4330 C   0  0  0  0  0  4           0  0  0
   -1.5250   -0.0009    4.0483 C   0  0  0  0  0  4           0  0  0
   -3.3557    1.0344    7.2315 C   0  0  0  0  0  4           0  0  0
   -0.5416    0.0000    1.3969 C   0  0  0  0  0  4           0  0  0
   -2.8665    1.0342    5.9142 C   0  0  0  0  0  4           0  0  0
   -1.2881    1.2045    3.3713 C   0  0  0  0  0  4           0  0  0
   -1.2611   -1.2057    3.3801 C   0  0  0  0  0  4           0  0  0
   -1.7190   -1.0374    6.3330 C   0  0  0  0  0  4           0  0  0
   -3.0239   -0.0121    8.0937 C   0  0  0  0  0  4           0  0  0
   -0.7994    1.2049    2.0619 C   0  0  0  0  0  4           0  0  0
   -0.7733   -1.2051    2.0705 C   0  0  0  0  0  4           0  0  0
   -2.2058   -1.0434    7.6433 C   0  0  0  0  0  4           0  0  0
   -4.2271    2.1048    7.7455 C   0  0  0  0  0  4           0  0  0
    1.7788    2.5157   -0.0058 C   0  0  0  0  0  4           0  0  0
    0.1710    3.8871   -1.0687 C   0  0  0  0  0  4           0  0  0
    0.0000    0.0000    0.0000 C   0  0  0  0  0  4           0  0  0
    1.7860   -2.5226    0.0017 C   0  0  0  0  0  4           0  0  0
    2.5369   -3.4026   -0.9951 C   0  0  0  0  0  4           0  0  0
    2.4253   -2.9414   -2.4485 C   0  0  0  0  0  4           0  0  0
    3.1939   -3.8591   -3.3858 C   0  0  0  0  0  4           0  0  0
  1  7  1  0     0  0
  2 22  2  0     0  0
  3 23  1  0     0  0
  3 24  1  0     0  0
  4 22  1  0     0  0
  5  8  1  0     0  0
  5  9  1  0     0  0
  5 25  1  0     0  0
  6  7  1  0     0  0
  6  8  2  0     0  0
  7  9  2  0     0  0
  8 26  1  0     0  0
  9 23  1  0     0  0
 10 11  1  0     0  0
 10 14  2  0     0  0
 10 17  1  0     0  0
 11 15  2  0     0  0
 11 16  1  0     0  0
 12 14  1  0     0  0
 12 18  2  0     0  0
 12 22  1  0     0  0
 13 19  2  0     0  0
 13 20  1  0     0  0
 13 25  1  0     0  0
 15 19  1  0     0  0
 16 20  2  0     0  0
 17 21  2  0     0  0
 18 21  1  0     0  0
 26 27  1  0     0  0
 27 28  1  0     0  0
 28 29  1  0     0  0
M  END
> <standard_type>
pIC50

> <# Confs.>
25

> <canonical_smiles>
ClC(N=C1CCCC)=C(COC)N1CC2=CC=C(C3=CC(C(O)=O)=CC=C3)C=C2

> <standard_relation>
=

> <Publication_ID>
nan

> <predicted_activity_value>
5.958607314841775

> <actual_activity_value>
5.5376020021010435

> <Compound>
18

> <standard_units>
nM

> hash
11305038322849973726

$$$$
18_
XXILIB    08252103443D 0   0.00000     0.00000

 29 31  0     1  0            999 V2000
    5.0074    1.4914    0.0122 Cl  0  0  0  0  0  1           0  0  0
   -2.2710   -2.1506    9.7650 O   0  0  0  0  0  2           0  0  0
    0.7328    2.5851   -0.9651 O   0  0  0  0  0  2           0  0  0
   -1.0749   -3.0372    8.0392 O   0  0  0  0  0  2           0  0  0
    1.4523    0.0000    0.0000 N   0  0  0  0  0  3           0  0  0
    3.5393   -0.7630    0.0025 N   0  0  0  0  0  3           0  0  0
    3.5500    0.6068    0.0019 C   0  0  0  0  0  4           0  0  0
    2.2690   -1.1150    0.0000 C   0  0  0  0  0  4           0  0  0
    2.2653    1.1171   -0.0044 C   0  0  0  0  0  4           0  0  0
   -2.0363   -0.0014    5.4330 C   0  0  0  0  0  4           0  0  0
   -1.5250   -0.0009    4.0483 C   0  0  0  0  0  4           0  0  0
   -2.2019   -1.0388    7.6567 C   0  0  0  0  0  4           0  0  0
   -0.5416    0.0000    1.3969 C   0  0  0  0  0  4           0  0  0
   -1.7176   -1.0376    6.3376 C   0  0  0  0  0  4           0  0  0
   -1.2881    1.2045    3.3713 C   0  0  0  0  0  4           0  0  0
   -1.2611   -1.2057    3.3801 C   0  0  0  0  0  4           0  0  0
   -2.8626    1.0341    5.9116 C   0  0  0  0  0  4           0  0  0
   -3.0146    0.0073    8.0971 C   0  0  0  0  0  4           0  0  0
   -0.7994    1.2049    2.0619 C   0  0  0  0  0  4           0  0  0
   -0.7733   -1.2051    2.0705 C   0  0  0  0  0  4           0  0  0
   -3.3440    1.0390    7.2238 C   0  0  0  0  0  4           0  0  0
   -1.8733   -2.1097    8.6129 C   0  0  0  0  0  4           0  0  0
    1.7788    2.5157   -0.0058 C   0  0  0  0  0  4           0  0  0
    0.1710    3.8871   -1.0687 C   0  0  0  0  0  4           0  0  0
    0.0000    0.0000    0.0000 C   0  0  0  0  0  4           0  0  0
    1.7860   -2.5226    0.0017 C   0  0  0  0  0  4           0  0  0
    2.5369   -3.4026   -0.9951 C   0  0  0  0  0  4           0  0  0
    2.4253   -2.9414   -2.4485 C   0  0  0  0  0  4           0  0  0
    3.1939   -3.8591   -3.3858 C   0  0  0  0  0  4           0  0  0
  1  7  1  0     0  0
  2 22  2  0     0  0
  3 23  1  0     0  0
  3 24  1  0     0  0
  4 22  1  0     0  0
  5  8  1  0     0  0
  5  9  1  0     0  0
  5 25  1  0     0  0
  6  7  1  0     0  0
  6  8  2  0     0  0
  7  9  2  0     0  0
  8 26  1  0     0  0
  9 23  1  0     0  0
 10 11  1  0     0  0
 10 14  2  0     0  0
 10 17  1  0     0  0
 11 15  2  0     0  0
 11 16  1  0     0  0
 12 14  1  0     0  0
 12 18  2  0     0  0
 12 22  1  0     0  0
 13 19  2  0     0  0
 13 20  1  0     0  0
 13 25  1  0     0  0
 15 19  1  0     0  0
 16 20  2  0     0  0
 17 21  2  0     0  0
 18 21  1  0     0  0
 26 27  1  0     0  0
 27 28  1  0     0  0
 28 29  1  0     0  0
M  END
> <standard_type>
pIC50

> <# Confs.>
25

> <canonical_smiles>
ClC(N=C1CCCC)=C(COC)N1CC2=CC=C(C3=CC(C(O)=O)=CC=C3)C=C2

> <standard_relation>
=

> <Publication_ID>
nan

> <predicted_activity_value>
5.958607314841775

> <actual_activity_value>
5.5376020021010435

> <Compound>
18

> <standard_units>
nM

> hash
11305038322849973726

$$$$
18_
XXILIB    08252103443D 0   0.00000     0.00000

 29 31  0     1  0            999 V2000
    5.0074    1.4914    0.0122 Cl  0  0  0  0  0  1           0  0  0
   -2.3281    2.1797    9.7455 O   0  0  0  0  0  2           0  0  0
    0.7328    2.5851   -0.9651 O   0  0  0  0  0  2           0  0  0
   -1.1492    3.0781    8.0140 O   0  0  0  0  0  2           0  0  0
    1.4523    0.0000    0.0000 N   0  0  0  0  0  3           0  0  0
    3.5393   -0.7630    0.0025 N   0  0  0  0  0  3           0  0  0
    3.5500    0.6068    0.0019 C   0  0  0  0  0  4           0  0  0
    2.2690   -1.1150    0.0000 C   0  0  0  0  0  4           0  0  0
    2.2653    1.1171   -0.0044 C   0  0  0  0  0  4           0  0  0
   -2.0363   -0.0014    5.4330 C   0  0  0  0  0  4           0  0  0
   -1.5250   -0.0009    4.0483 C   0  0  0  0  0  4           0  0  0
   -2.2252    1.0485    7.6489 C   0  0  0  0  0  4           0  0  0
   -0.5416    0.0000    1.3969 C   0  0  0  0  0  4           0  0  0
   -1.7378    1.0465    6.3309 C   0  0  0  0  0  4           0  0  0
   -1.2881    1.2045    3.3713 C   0  0  0  0  0  4           0  0  0
   -1.2611   -1.2057    3.3801 C   0  0  0  0  0  4           0  0  0
   -2.8463   -1.0473    5.9168 C   0  0  0  0  0  4           0  0  0
   -3.0294   -0.0030    8.0916 C   0  0  0  0  0  4           0  0  0
   -0.7994    1.2049    2.0619 C   0  0  0  0  0  4           0  0  0
   -0.7733   -1.2051    2.0705 C   0  0  0  0  0  4           0  0  0
   -3.3362   -1.0480    7.2260 C   0  0  0  0  0  4           0  0  0
   -1.9268    2.1374    8.5948 C   0  0  0  0  0  4           0  0  0
    1.7788    2.5157   -0.0058 C   0  0  0  0  0  4           0  0  0
    0.1710    3.8871   -1.0687 C   0  0  0  0  0  4           0  0  0
    0.0000    0.0000    0.0000 C   0  0  0  0  0  4           0  0  0
    1.7860   -2.5226    0.0017 C   0  0  0  0  0  4           0  0  0
    2.5369   -3.4026   -0.9951 C   0  0  0  0  0  4           0  0  0
    2.4253   -2.9414   -2.4485 C   0  0  0  0  0  4           0  0  0
    3.1939   -3.8591   -3.3858 C   0  0  0  0  0  4           0  0  0
  1  7  1  0     0  0
  2 22  2  0     0  0
  3 23  1  0     0  0
  3 24  1  0     0  0
  4 22  1  0     0  0
  5  8  1  0     0  0
  5  9  1  0     0  0
  5 25  1  0     0  0
  6  7  1  0     0  0
  6  8  2  0     0  0
  7  9  2  0     0  0
  8 26  1  0     0  0
  9 23  1  0     0  0
 10 11  1  0     0  0
 10 14  2  0     0  0
 10 17  1  0     0  0
 11 15  2  0     0  0
 11 16  1  0     0  0
 12 14  1  0     0  0
 12 18  2  0     0  0
 12 22  1  0     0  0
 13 19  2  0     0  0
 13 20  1  0     0  0
 13 25  1  0     0  0
 15 19  1  0     0  0
 16 20  2  0     0  0
 17 21  2  0     0  0
 18 21  1  0     0  0
 26 27  1  0     0  0
 27 28  1  0     0  0
 28 29  1  0     0  0
M  END
> <standard_type>
pIC50

> <# Confs.>
25

> <canonical_smiles>
ClC(N=C1CCCC)=C(COC)N1CC2=CC=C(C3=CC(C(O)=O)=CC=C3)C=C2

> <standard_relation>
=

> <Publication_ID>
nan

> <predicted_activity_value>
5.958607314841775

> <actual_activity_value>
5.5376020021010435

> <Compound>
18

> <standard_units>
nM

> hash
11305038322849973726

$$$$
18_
XXILIB    08252103443D 0   0.00000     0.00000

 29 31  0     1  0            999 V2000
    5.0074    1.4914    0.0122 Cl  0  0  0  0  0  1           0  0  0
   -4.6164   -2.1855    8.8991 O   0  0  0  0  0  2           0  0  0
    0.7328    2.5851   -0.9651 O   0  0  0  0  0  2           0  0  0
   -4.3870   -3.0824    6.8163 O   0  0  0  0  0  2           0  0  0
    1.4523    0.0000    0.0000 N   0  0  0  0  0  3           0  0  0
    3.5393   -0.7630    0.0025 N   0  0  0  0  0  3           0  0  0
    3.5500    0.6068    0.0019 C   0  0  0  0  0  4           0  0  0
    2.2690   -1.1150    0.0000 C   0  0  0  0  0  4           0  0  0
    2.2653    1.1171   -0.0044 C   0  0  0  0  0  4           0  0  0
   -2.0363   -0.0014    5.4330 C   0  0  0  0  0  4           0  0  0
   -1.5250   -0.0009    4.0483 C   0  0  0  0  0  4           0  0  0
   -3.3324   -1.0529    7.2393 C   0  0  0  0  0  4           0  0  0
   -0.5416    0.0000    1.3969 C   0  0  0  0  0  4           0  0  0
   -2.8464   -1.0498    5.9208 C   0  0  0  0  0  4           0  0  0
   -1.2881    1.2045    3.3713 C   0  0  0  0  0  4           0  0  0
   -1.2611   -1.2057    3.3801 C   0  0  0  0  0  4           0  0  0
   -1.7353    1.0439    6.3278 C   0  0  0  0  0  4           0  0  0
   -3.0091   -0.0018    8.0991 C   0  0  0  0  0  4           0  0  0
   -0.7994    1.2049    2.0619 C   0  0  0  0  0  4           0  0  0
   -0.7733   -1.2051    2.0705 C   0  0  0  0  0  4           0  0  0
   -2.2136    1.0437    7.6412 C   0  0  0  0  0  4           0  0  0
   -4.1737   -2.1423    7.7636 C   0  0  0  0  0  4           0  0  0
    1.7788    2.5157   -0.0058 C   0  0  0  0  0  4           0  0  0
    0.1710    3.8871   -1.0687 C   0  0  0  0  0  4           0  0  0
    0.0000    0.0000    0.0000 C   0  0  0  0  0  4           0  0  0
    1.7860   -2.5226    0.0017 C   0  0  0  0  0  4           0  0  0
    2.5369   -3.4026   -0.9951 C   0  0  0  0  0  4           0  0  0
    2.4253   -2.9414   -2.4485 C   0  0  0  0  0  4           0  0  0
    3.1939   -3.8591   -3.3858 C   0  0  0  0  0  4           0  0  0
  1  7  1  0     0  0
  2 22  2  0     0  0
  3 23  1  0     0  0
  3 24  1  0     0  0
  4 22  1  0     0  0
  5  8  1  0     0  0
  5  9  1  0     0  0
  5 25  1  0     0  0
  6  7  1  0     0  0
  6  8  2  0     0  0
  7  9  2  0     0  0
  8 26  1  0     0  0
  9 23  1  0     0  0
 10 11  1  0     0  0
 10 14  2  0     0  0
 10 17  1  0     0  0
 11 15  2  0     0  0
 11 16  1  0     0  0
 12 14  1  0     0  0
 12 18  2  0     0  0
 12 22  1  0     0  0
 13 19  2  0     0  0
 13 20  1  0     0  0
 13 25  1  0     0  0
 15 19  1  0     0  0
 16 20  2  0     0  0
 17 21  2  0     0  0
 18 21  1  0     0  0
 26 27  1  0     0  0
 27 28  1  0     0  0
 28 29  1  0     0  0
M  END
> <standard_type>
pIC50

> <# Confs.>
25

> <canonical_smiles>
ClC(N=C1CCCC)=C(COC)N1CC2=CC=C(C3=CC(C(O)=O)=CC=C3)C=C2

> <standard_relation>
=

> <Publication_ID>
nan

> <predicted_activity_value>
5.958607314841775

> <actual_activity_value>
5.5376020021010435

> <Compound>
18

> <standard_units>
nM

> hash
11305038322849973726

$$$$
18_
XXILIB    08252103443D 0   0.00000     0.00000

 29 31  0     1  0            999 V2000
    5.0074   -1.4914   -0.0122 Cl  0  0  0  0  0  1           0  0  0
   -4.6164   -2.1855    8.8991 O   0  0  0  0  0  2           0  0  0
    0.7380   -2.5888   -0.9589 O   0  0  0  0  0  2           0  0  0
   -4.3870   -3.0824    6.8163 O   0  0  0  0  0  2           0  0  0
    1.4523   -0.0000   -0.0000 N   0  0  0  0  0  3           0  0  0
    3.5393    0.7630   -0.0025 N   0  0  0  0  0  3           0  0  0
    3.5500   -0.6068   -0.0019 C   0  0  0  0  0  4           0  0  0
    2.2690    1.1150    0.0000 C   0  0  0  0  0  4           0  0  0
    2.2653   -1.1171    0.0044 C   0  0  0  0  0  4           0  0  0
   -2.0363   -0.0014    5.4330 C   0  0  0  0  0  4           0  0  0
   -1.5250   -0.0009    4.0483 C   0  0  0  0  0  4           0  0  0
   -3.3324   -1.0529    7.2393 C   0  0  0  0  0  4           0  0  0
   -0.5416    0.0000    1.3969 C   0  0  0  0  0  4           0  0  0
   -2.8464   -1.0498    5.9208 C   0  0  0  0  0  4           0  0  0
   -1.2881    1.2045    3.3713 C   0  0  0  0  0  4           0  0  0
   -1.2611   -1.2057    3.3801 C   0  0  0  0  0  4           0  0  0
   -1.7353    1.0439    6.3278 C   0  0  0  0  0  4           0  0  0
   -3.0091   -0.0018    8.0991 C   0  0  0  0  0  4           0  0  0
   -0.7994    1.2049    2.0619 C   0  0  0  0  0  4           0  0  0
   -0.7733   -1.2051    2.0705 C   0  0  0  0  0  4           0  0  0
   -2.2136    1.0437    7.6412 C   0  0  0  0  0  4           0  0  0
   -4.1737   -2.1423    7.7636 C   0  0  0  0  0  4           0  0  0
    1.7788   -2.5157    0.0058 C   0  0  0  0  0  4           0  0  0
    0.1768   -3.8913   -1.0604 C   0  0  0  0  0  4           0  0  0
    0.0000    0.0000    0.0000 C   0  0  0  0  0  4           0  0  0
    1.7860    2.5226   -0.0017 C   0  0  0  0  0  4           0  0  0
    2.5392    3.4009   -0.9983 C   0  0  0  0  0  4           0  0  0
    2.4309    2.9373   -2.4512 C   0  0  0  0  0  4           0  0  0
    3.2016    3.8534   -3.3882 C   0  0  0  0  0  4           0  0  0
  1  7  1  0     0  0
  2 22  2  0     0  0
  3 23  1  0     0  0
  3 24  1  0     0  0
  4 22  1  0     0  0
  5  8  1  0     0  0
  5  9  1  0     0  0
  5 25  1  0     0  0
  6  7  1  0     0  0
  6  8  2  0     0  0
  7  9  2  0     0  0
  8 26  1  0     0  0
  9 23  1  0     0  0
 10 11  1  0     0  0
 10 14  2  0     0  0
 10 17  1  0     0  0
 11 15  2  0     0  0
 11 16  1  0     0  0
 12 14  1  0     0  0
 12 18  2  0     0  0
 12 22  1  0     0  0
 13 19  2  0     0  0
 13 20  1  0     0  0
 13 25  1  0     0  0
 15 19  1  0     0  0
 16 20  2  0     0  0
 17 21  2  0     0  0
 18 21  1  0     0  0
 26 27  1  0     0  0
 27 28  1  0     0  0
 28 29  1  0     0  0
M  END
> <standard_type>
pIC50

> <# Confs.>
25

> <canonical_smiles>
ClC(N=C1CCCC)=C(COC)N1CC2=CC=C(C3=CC(C(O)=O)=CC=C3)C=C2

> <standard_relation>
=

> <Publication_ID>
nan

> <predicted_activity_value>
5.958607314841775

> <actual_activity_value>
5.5376020021010435

> <Compound>
18

> <standard_units>
nM

> hash
11305038322849973726

$$$$
18_
XXILIB    08252103443D 0   0.00000     0.00000

 29 31  0     1  0            999 V2000
    5.0074   -1.4914   -0.0122 Cl  0  0  0  0  0  1           0  0  0
   -2.3281    2.1797    9.7455 O   0  0  0  0  0  2           0  0  0
    0.7380   -2.5888   -0.9589 O   0  0  0  0  0  2           0  0  0
   -1.1492    3.0781    8.0140 O   0  0  0  0  0  2           0  0  0
    1.4523   -0.0000   -0.0000 N   0  0  0  0  0  3           0  0  0
    3.5393    0.7630   -0.0025 N   0  0  0  0  0  3           0  0  0
    3.5500   -0.6068   -0.0019 C   0  0  0  0  0  4           0  0  0
    2.2690    1.1150    0.0000 C   0  0  0  0  0  4           0  0  0
    2.2653   -1.1171    0.0044 C   0  0  0  0  0  4           0  0  0
   -2.0363   -0.0014    5.4330 C   0  0  0  0  0  4           0  0  0
   -1.5250   -0.0009    4.0483 C   0  0  0  0  0  4           0  0  0
   -2.2252    1.0485    7.6489 C   0  0  0  0  0  4           0  0  0
   -0.5416    0.0000    1.3969 C   0  0  0  0  0  4           0  0  0
   -1.7378    1.0465    6.3309 C   0  0  0  0  0  4           0  0  0
   -1.2881    1.2045    3.3713 C   0  0  0  0  0  4           0  0  0
   -1.2611   -1.2057    3.3801 C   0  0  0  0  0  4           0  0  0
   -2.8463   -1.0473    5.9168 C   0  0  0  0  0  4           0  0  0
   -3.0294   -0.0030    8.0916 C   0  0  0  0  0  4           0  0  0
   -0.7994    1.2049    2.0619 C   0  0  0  0  0  4           0  0  0
   -0.7733   -1.2051    2.0705 C   0  0  0  0  0  4           0  0  0
   -3.3362   -1.0480    7.2260 C   0  0  0  0  0  4           0  0  0
   -1.9268    2.1374    8.5948 C   0  0  0  0  0  4           0  0  0
    1.7788   -2.5157    0.0058 C   0  0  0  0  0  4           0  0  0
    0.1768   -3.8913   -1.0604 C   0  0  0  0  0  4           0  0  0
    0.0000    0.0000    0.0000 C   0  0  0  0  0  4           0  0  0
    1.7860    2.5226   -0.0017 C   0  0  0  0  0  4           0  0  0
    2.5392    3.4009   -0.9983 C   0  0  0  0  0  4           0  0  0
    2.4309    2.9373   -2.4512 C   0  0  0  0  0  4           0  0  0
    3.2016    3.8534   -3.3882 C   0  0  0  0  0  4           0  0  0
  1  7  1  0     0  0
  2 22  2  0     0  0
  3 23  1  0     0  0
  3 24  1  0     0  0
  4 22  1  0     0  0
  5  8  1  0     0  0
  5  9  1  0     0  0
  5 25  1  0     0  0
  6  7  1  0     0  0
  6  8  2  0     0  0
  7  9  2  0     0  0
  8 26  1  0     0  0
  9 23  1  0     0  0
 10 11  1  0     0  0
 10 14  2  0     0  0
 10 17  1  0     0  0
 11 15  2  0     0  0
 11 16  1  0     0  0
 12 14  1  0     0  0
 12 18  2  0     0  0
 12 22  1  0     0  0
 13 19  2  0     0  0
 13 20  1  0     0  0
 13 25  1  0     0  0
 15 19  1  0     0  0
 16 20  2  0     0  0
 17 21  2  0     0  0
 18 21  1  0     0  0
 26 27  1  0     0  0
 27 28  1  0     0  0
 28 29  1  0     0  0
M  END
> <standard_type>
pIC50

> <# Confs.>
25

> <canonical_smiles>
ClC(N=C1CCCC)=C(COC)N1CC2=CC=C(C3=CC(C(O)=O)=CC=C3)C=C2

> <standard_relation>
=

> <Publication_ID>
nan

> <predicted_activity_value>
5.958607314841775

> <actual_activity_value>
5.5376020021010435

> <Compound>
18

> <standard_units>
nM

> hash
11305038322849973726

$$$$
18_
XXILIB    08252103443D 0   0.00000     0.00000

 29 31  0     1  0            999 V2000
    5.0074   -1.4914   -0.0122 Cl  0  0  0  0  0  1           0  0  0
   -2.2710   -2.1506    9.7650 O   0  0  0  0  0  2           0  0  0
    0.7380   -2.5888   -0.9589 O   0  0  0  0  0  2           0  0  0
   -1.0749   -3.0372    8.0392 O   0  0  0  0  0  2           0  0  0
    1.4523   -0.0000   -0.0000 N   0  0  0  0  0  3           0  0  0
    3.5393    0.7630   -0.0025 N   0  0  0  0  0  3           0  0  0
    3.5500   -0.6068   -0.0019 C   0  0  0  0  0  4           0  0  0
    2.2690    1.1150    0.0000 C   0  0  0  0  0  4           0  0  0
    2.2653   -1.1171    0.0044 C   0  0  0  0  0  4           0  0  0
   -2.0363   -0.0014    5.4330 C   0  0  0  0  0  4           0  0  0
   -1.5250   -0.0009    4.0483 C   0  0  0  0  0  4           0  0  0
   -2.2019   -1.0388    7.6567 C   0  0  0  0  0  4           0  0  0
   -0.5416    0.0000    1.3969 C   0  0  0  0  0  4           0  0  0
   -1.7176   -1.0376    6.3376 C   0  0  0  0  0  4           0  0  0
   -1.2881    1.2045    3.3713 C   0  0  0  0  0  4           0  0  0
   -1.2611   -1.2057    3.3801 C   0  0  0  0  0  4           0  0  0
   -2.8626    1.0341    5.9116 C   0  0  0  0  0  4           0  0  0
   -3.0146    0.0073    8.0971 C   0  0  0  0  0  4           0  0  0
   -0.7994    1.2049    2.0619 C   0  0  0  0  0  4           0  0  0
   -0.7733   -1.2051    2.0705 C   0  0  0  0  0  4           0  0  0
   -3.3440    1.0390    7.2238 C   0  0  0  0  0  4           0  0  0
   -1.8733   -2.1097    8.6129 C   0  0  0  0  0  4           0  0  0
    1.7788   -2.5157    0.0058 C   0  0  0  0  0  4           0  0  0
    0.1768   -3.8913   -1.0604 C   0  0  0  0  0  4           0  0  0
    0.0000    0.0000    0.0000 C   0  0  0  0  0  4           0  0  0
    1.7860    2.5226   -0.0017 C   0  0  0  0  0  4           0  0  0
    2.5392    3.4009   -0.9983 C   0  0  0  0  0  4           0  0  0
    2.4309    2.9373   -2.4512 C   0  0  0  0  0  4           0  0  0
    3.2016    3.8534   -3.3882 C   0  0  0  0  0  4           0  0  0
  1  7  1  0     0  0
  2 22  2  0     0  0
  3 23  1  0     0  0
  3 24  1  0     0  0
  4 22  1  0     0  0
  5  8  1  0     0  0
  5  9  1  0     0  0
  5 25  1  0     0  0
  6  7  1  0     0  0
  6  8  2  0     0  0
  7  9  2  0     0  0
  8 26  1  0     0  0
  9 23  1  0     0  0
 10 11  1  0     0  0
 10 14  2  0     0  0
 10 17  1  0     0  0
 11 15  2  0     0  0
 11 16  1  0     0  0
 12 14  1  0     0  0
 12 18  2  0     0  0
 12 22  1  0     0  0
 13 19  2  0     0  0
 13 20  1  0     0  0
 13 25  1  0     0  0
 15 19  1  0     0  0
 16 20  2  0     0  0
 17 21  2  0     0  0
 18 21  1  0     0  0
 26 27  1  0     0  0
 27 28  1  0     0  0
 28 29  1  0     0  0
M  END
> <standard_type>
pIC50

> <# Confs.>
25

> <canonical_smiles>
ClC(N=C1CCCC)=C(COC)N1CC2=CC=C(C3=CC(C(O)=O)=CC=C3)C=C2

> <standard_relation>
=

> <Publication_ID>
nan

> <predicted_activity_value>
5.958607314841775

> <actual_activity_value>
5.5376020021010435

> <Compound>
18

> <standard_units>
nM

> hash
11305038322849973726

$$$$
18_
XXILIB    08252103443D 0   0.00000     0.00000

 29 31  0     1  0            999 V2000
    5.0074   -1.4914   -0.0122 Cl  0  0  0  0  0  1           0  0  0
   -4.6735    2.1449    8.8796 O   0  0  0  0  0  2           0  0  0
    0.7380   -2.5888   -0.9589 O   0  0  0  0  0  2           0  0  0
   -4.4613    3.0328    6.7911 O   0  0  0  0  0  2           0  0  0
    1.4523   -0.0000   -0.0000 N   0  0  0  0  0  3           0  0  0
    3.5393    0.7630   -0.0025 N   0  0  0  0  0  3           0  0  0
    3.5500   -0.6068   -0.0019 C   0  0  0  0  0  4           0  0  0
    2.2690    1.1150    0.0000 C   0  0  0  0  0  4           0  0  0
    2.2653   -1.1171    0.0044 C   0  0  0  0  0  4           0  0  0
   -2.0363   -0.0014    5.4330 C   0  0  0  0  0  4           0  0  0
   -1.5250   -0.0009    4.0483 C   0  0  0  0  0  4           0  0  0
   -3.3557    1.0344    7.2315 C   0  0  0  0  0  4           0  0  0
   -0.5416    0.0000    1.3969 C   0  0  0  0  0  4           0  0  0
   -2.8665    1.0342    5.9142 C   0  0  0  0  0  4           0  0  0
   -1.2881    1.2045    3.3713 C   0  0  0  0  0  4           0  0  0
   -1.2611   -1.2057    3.3801 C   0  0  0  0  0  4           0  0  0
   -1.7190   -1.0374    6.3330 C   0  0  0  0  0  4           0  0  0
   -3.0239   -0.0121    8.0937 C   0  0  0  0  0  4           0  0  0
   -0.7994    1.2049    2.0619 C   0  0  0  0  0  4           0  0  0
   -0.7733   -1.2051    2.0705 C   0  0  0  0  0  4           0  0  0
   -2.2058   -1.0434    7.6433 C   0  0  0  0  0  4           0  0  0
   -4.2271    2.1048    7.7455 C   0  0  0  0  0  4           0  0  0
    1.7788   -2.5157    0.0058 C   0  0  0  0  0  4           0  0  0
    0.1768   -3.8913   -1.0604 C   0  0  0  0  0  4           0  0  0
    0.0000    0.0000    0.0000 C   0  0  0  0  0  4           0  0  0
    1.7860    2.5226   -0.0017 C   0  0  0  0  0  4           0  0  0
    2.5392    3.4009   -0.9983 C   0  0  0  0  0  4           0  0  0
    2.4309    2.9373   -2.4512 C   0  0  0  0  0  4           0  0  0
    3.2016    3.8534   -3.3882 C   0  0  0  0  0  4           0  0  0
  1  7  1  0     0  0
  2 22  2  0     0  0
  3 23  1  0     0  0
  3 24  1  0     0  0
  4 22  1  0     0  0
  5  8  1  0     0  0
  5  9  1  0     0  0
  5 25  1  0     0  0
  6  7  1  0     0  0
  6  8  2  0     0  0
  7  9  2  0     0  0
  8 26  1  0     0  0
  9 23  1  0     0  0
 10 11  1  0     0  0
 10 14  2  0     0  0
 10 17  1  0     0  0
 11 15  2  0     0  0
 11 16  1  0     0  0
 12 14  1  0     0  0
 12 18  2  0     0  0
 12 22  1  0     0  0
 13 19  2  0     0  0
 13 20  1  0     0  0
 13 25  1  0     0  0
 15 19  1  0     0  0
 16 20  2  0     0  0
 17 21  2  0     0  0
 18 21  1  0     0  0
 26 27  1  0     0  0
 27 28  1  0     0  0
 28 29  1  0     0  0
M  END
> <standard_type>
pIC50

> <# Confs.>
25

> <canonical_smiles>
ClC(N=C1CCCC)=C(COC)N1CC2=CC=C(C3=CC(C(O)=O)=CC=C3)C=C2

> <standard_relation>
=

> <Publication_ID>
nan

> <predicted_activity_value>
5.958607314841775

> <actual_activity_value>
5.5376020021010435

> <Compound>
18

> <standard_units>
nM

> hash
11305038322849973726

$$$$
18_
XXILIB    08252103443D 0   0.00000     0.00000

 29 31  0     1  0            999 V2000
    5.0074    1.4914    0.0122 Cl  0  0  0  0  0  1           0  0  0
   -4.6735    2.1449    8.8796 O   0  0  0  0  0  2           0  0  0
    0.7328    2.5851   -0.9651 O   0  0  0  0  0  2           0  0  0
   -4.4613    3.0328    6.7911 O   0  0  0  0  0  2           0  0  0
    1.4523    0.0000    0.0000 N   0  0  0  0  0  3           0  0  0
    3.5393   -0.7630    0.0025 N   0  0  0  0  0  3           0  0  0
    3.5500    0.6068    0.0019 C   0  0  0  0  0  4           0  0  0
    2.2690   -1.1150    0.0000 C   0  0  0  0  0  4           0  0  0
    2.2653    1.1171   -0.0044 C   0  0  0  0  0  4           0  0  0
   -2.0363   -0.0014    5.4330 C   0  0  0  0  0  4           0  0  0
   -1.5250   -0.0009    4.0483 C   0  0  0  0  0  4           0  0  0
   -3.3557    1.0344    7.2315 C   0  0  0  0  0  4           0  0  0
   -0.5416    0.0000    1.3969 C   0  0  0  0  0  4           0  0  0
   -2.8665    1.0342    5.9142 C   0  0  0  0  0  4           0  0  0
   -1.2881    1.2045    3.3713 C   0  0  0  0  0  4           0  0  0
   -1.2611   -1.2057    3.3801 C   0  0  0  0  0  4           0  0  0
   -1.7190   -1.0374    6.3330 C   0  0  0  0  0  4           0  0  0
   -3.0239   -0.0121    8.0937 C   0  0  0  0  0  4           0  0  0
   -0.7994    1.2049    2.0619 C   0  0  0  0  0  4           0  0  0
   -0.7733   -1.2051    2.0705 C   0  0  0  0  0  4           0  0  0
   -2.2058   -1.0434    7.6433 C   0  0  0  0  0  4           0  0  0
   -4.2271    2.1048    7.7455 C   0  0  0  0  0  4           0  0  0
    1.7788    2.5157   -0.0058 C   0  0  0  0  0  4           0  0  0
    0.1710    3.8871   -1.0687 C   0  0  0  0  0  4           0  0  0
    0.0000    0.0000    0.0000 C   0  0  0  0  0  4           0  0  0
    1.7860   -2.5226    0.0017 C   0  0  0  0  0  4           0  0  0
    2.5369   -3.4026   -0.9951 C   0  0  0  0  0  4           0  0  0
    2.0700   -4.8582   -1.0241 C   0  0  0  0  0  4           0  0  0
    2.8570   -5.6766   -2.0351 C   0  0  0  0  0  4           0  0  0
  1  7  1  0     0  0
  2 22  2  0     0  0
  3 23  1  0     0  0
  3 24  1  0     0  0
  4 22  1  0     0  0
  5  8  1  0     0  0
  5  9  1  0     0  0
  5 25  1  0     0  0
  6  7  1  0     0  0
  6  8  2  0     0  0
  7  9  2  0     0  0
  8 26  1  0     0  0
  9 23  1  0     0  0
 10 11  1  0     0  0
 10 14  2  0     0  0
 10 17  1  0     0  0
 11 15  2  0     0  0
 11 16  1  0     0  0
 12 14  1  0     0  0
 12 18  2  0     0  0
 12 22  1  0     0  0
 13 19  2  0     0  0
 13 20  1  0     0  0
 13 25  1  0     0  0
 15 19  1  0     0  0
 16 20  2  0     0  0
 17 21  2  0     0  0
 18 21  1  0     0  0
 26 27  1  0     0  0
 27 28  1  0     0  0
 28 29  1  0     0  0
M  END
> <standard_type>
pIC50

> <# Confs.>
25

> <canonical_smiles>
ClC(N=C1CCCC)=C(COC)N1CC2=CC=C(C3=CC(C(O)=O)=CC=C3)C=C2

> <standard_relation>
=

> <Publication_ID>
nan

> <predicted_activity_value>
5.958607314841775

> <actual_activity_value>
5.5376020021010435

> <Compound>
18

> <standard_units>
nM

> hash
11305038322849973726

$$$$
18_
XXILIB    08252103443D 0   0.00000     0.00000

 29 31  0     1  0            999 V2000
    5.0074    1.4914    0.0122 Cl  0  0  0  0  0  1           0  0  0
   -2.2710   -2.1506    9.7650 O   0  0  0  0  0  2           0  0  0
    0.7328    2.5851   -0.9651 O   0  0  0  0  0  2           0  0  0
   -1.0749   -3.0372    8.0392 O   0  0  0  0  0  2           0  0  0
    1.4523    0.0000    0.0000 N   0  0  0  0  0  3           0  0  0
    3.5393   -0.7630    0.0025 N   0  0  0  0  0  3           0  0  0
    3.5500    0.6068    0.0019 C   0  0  0  0  0  4           0  0  0
    2.2690   -1.1150    0.0000 C   0  0  0  0  0  4           0  0  0
    2.2653    1.1171   -0.0044 C   0  0  0  0  0  4           0  0  0
   -2.0363   -0.0014    5.4330 C   0  0  0  0  0  4           0  0  0
   -1.5250   -0.0009    4.0483 C   0  0  0  0  0  4           0  0  0
   -2.2019   -1.0388    7.6567 C   0  0  0  0  0  4           0  0  0
   -0.5416    0.0000    1.3969 C   0  0  0  0  0  4           0  0  0
   -1.7176   -1.0376    6.3376 C   0  0  0  0  0  4           0  0  0
   -1.2881    1.2045    3.3713 C   0  0  0  0  0  4           0  0  0
   -1.2611   -1.2057    3.3801 C   0  0  0  0  0  4           0  0  0
   -2.8626    1.0341    5.9116 C   0  0  0  0  0  4           0  0  0
   -3.0146    0.0073    8.0971 C   0  0  0  0  0  4           0  0  0
   -0.7994    1.2049    2.0619 C   0  0  0  0  0  4           0  0  0
   -0.7733   -1.2051    2.0705 C   0  0  0  0  0  4           0  0  0
   -3.3440    1.0390    7.2238 C   0  0  0  0  0  4           0  0  0
   -1.8733   -2.1097    8.6129 C   0  0  0  0  0  4           0  0  0
    1.7788    2.5157   -0.0058 C   0  0  0  0  0  4           0  0  0
    0.1710    3.8871   -1.0687 C   0  0  0  0  0  4           0  0  0
    0.0000    0.0000    0.0000 C   0  0  0  0  0  4           0  0  0
    1.7860   -2.5226    0.0017 C   0  0  0  0  0  4           0  0  0
    2.5369   -3.4026   -0.9951 C   0  0  0  0  0  4           0  0  0
    2.0700   -4.8582   -1.0241 C   0  0  0  0  0  4           0  0  0
    2.8570   -5.6766   -2.0351 C   0  0  0  0  0  4           0  0  0
  1  7  1  0     0  0
  2 22  2  0     0  0
  3 23  1  0     0  0
  3 24  1  0     0  0
  4 22  1  0     0  0
  5  8  1  0     0  0
  5  9  1  0     0  0
  5 25  1  0     0  0
  6  7  1  0     0  0
  6  8  2  0     0  0
  7  9  2  0     0  0
  8 26  1  0     0  0
  9 23  1  0     0  0
 10 11  1  0     0  0
 10 14  2  0     0  0
 10 17  1  0     0  0
 11 15  2  0     0  0
 11 16  1  0     0  0
 12 14  1  0     0  0
 12 18  2  0     0  0
 12 22  1  0     0  0
 13 19  2  0     0  0
 13 20  1  0     0  0
 13 25  1  0     0  0
 15 19  1  0     0  0
 16 20  2  0     0  0
 17 21  2  0     0  0
 18 21  1  0     0  0
 26 27  1  0     0  0
 27 28  1  0     0  0
 28 29  1  0     0  0
M  END
> <standard_type>
pIC50

> <# Confs.>
25

> <canonical_smiles>
ClC(N=C1CCCC)=C(COC)N1CC2=CC=C(C3=CC(C(O)=O)=CC=C3)C=C2

> <standard_relation>
=

> <Publication_ID>
nan

> <predicted_activity_value>
5.958607314841775

> <actual_activity_value>
5.5376020021010435

> <Compound>
18

> <standard_units>
nM

> hash
11305038322849973726

$$$$
18_
XXILIB    08252103443D 0   0.00000     0.00000

 29 31  0     1  0            999 V2000
    5.0074    1.4914    0.0122 Cl  0  0  0  0  0  1           0  0  0
   -2.3281    2.1797    9.7455 O   0  0  0  0  0  2           0  0  0
    0.7328    2.5851   -0.9651 O   0  0  0  0  0  2           0  0  0
   -1.1492    3.0781    8.0140 O   0  0  0  0  0  2           0  0  0
    1.4523    0.0000    0.0000 N   0  0  0  0  0  3           0  0  0
    3.5393   -0.7630    0.0025 N   0  0  0  0  0  3           0  0  0
    3.5500    0.6068    0.0019 C   0  0  0  0  0  4           0  0  0
    2.2690   -1.1150    0.0000 C   0  0  0  0  0  4           0  0  0
    2.2653    1.1171   -0.0044 C   0  0  0  0  0  4           0  0  0
   -2.0363   -0.0014    5.4330 C   0  0  0  0  0  4           0  0  0
   -1.5250   -0.0009    4.0483 C   0  0  0  0  0  4           0  0  0
   -2.2252    1.0485    7.6489 C   0  0  0  0  0  4           0  0  0
   -0.5416    0.0000    1.3969 C   0  0  0  0  0  4           0  0  0
   -1.7378    1.0465    6.3309 C   0  0  0  0  0  4           0  0  0
   -1.2881    1.2045    3.3713 C   0  0  0  0  0  4           0  0  0
   -1.2611   -1.2057    3.3801 C   0  0  0  0  0  4           0  0  0
   -2.8463   -1.0473    5.9168 C   0  0  0  0  0  4           0  0  0
   -3.0294   -0.0030    8.0916 C   0  0  0  0  0  4           0  0  0
   -0.7994    1.2049    2.0619 C   0  0  0  0  0  4           0  0  0
   -0.7733   -1.2051    2.0705 C   0  0  0  0  0  4           0  0  0
   -3.3362   -1.0480    7.2260 C   0  0  0  0  0  4           0  0  0
   -1.9268    2.1374    8.5948 C   0  0  0  0  0  4           0  0  0
    1.7788    2.5157   -0.0058 C   0  0  0  0  0  4           0  0  0
    0.1710    3.8871   -1.0687 C   0  0  0  0  0  4           0  0  0
    0.0000    0.0000    0.0000 C   0  0  0  0  0  4           0  0  0
    1.7860   -2.5226    0.0017 C   0  0  0  0  0  4           0  0  0
    2.5369   -3.4026   -0.9951 C   0  0  0  0  0  4           0  0  0
    2.0700   -4.8582   -1.0241 C   0  0  0  0  0  4           0  0  0
    2.8570   -5.6766   -2.0351 C   0  0  0  0  0  4           0  0  0
  1  7  1  0     0  0
  2 22  2  0     0  0
  3 23  1  0     0  0
  3 24  1  0     0  0
  4 22  1  0     0  0
  5  8  1  0     0  0
  5  9  1  0     0  0
  5 25  1  0     0  0
  6  7  1  0     0  0
  6  8  2  0     0  0
  7  9  2  0     0  0
  8 26  1  0     0  0
  9 23  1  0     0  0
 10 11  1  0     0  0
 10 14  2  0     0  0
 10 17  1  0     0  0
 11 15  2  0     0  0
 11 16  1  0     0  0
 12 14  1  0     0  0
 12 18  2  0     0  0
 12 22  1  0     0  0
 13 19  2  0     0  0
 13 20  1  0     0  0
 13 25  1  0     0  0
 15 19  1  0     0  0
 16 20  2  0     0  0
 17 21  2  0     0  0
 18 21  1  0     0  0
 26 27  1  0     0  0
 27 28  1  0     0  0
 28 29  1  0     0  0
M  END
> <standard_type>
pIC50

> <# Confs.>
25

> <canonical_smiles>
ClC(N=C1CCCC)=C(COC)N1CC2=CC=C(C3=CC(C(O)=O)=CC=C3)C=C2

> <standard_relation>
=

> <Publication_ID>
nan

> <predicted_activity_value>
5.958607314841775

> <actual_activity_value>
5.5376020021010435

> <Compound>
18

> <standard_units>
nM

> hash
11305038322849973726

$$$$
18_
XXILIB    08252103443D 0   0.00000     0.00000

 29 31  0     1  0            999 V2000
    5.0074    1.4914    0.0122 Cl  0  0  0  0  0  1           0  0  0
   -4.6164   -2.1855    8.8991 O   0  0  0  0  0  2           0  0  0
    0.7328    2.5851   -0.9651 O   0  0  0  0  0  2           0  0  0
   -4.3870   -3.0824    6.8163 O   0  0  0  0  0  2           0  0  0
    1.4523    0.0000    0.0000 N   0  0  0  0  0  3           0  0  0
    3.5393   -0.7630    0.0025 N   0  0  0  0  0  3           0  0  0
    3.5500    0.6068    0.0019 C   0  0  0  0  0  4           0  0  0
    2.2690   -1.1150    0.0000 C   0  0  0  0  0  4           0  0  0
    2.2653    1.1171   -0.0044 C   0  0  0  0  0  4           0  0  0
   -2.0363   -0.0014    5.4330 C   0  0  0  0  0  4           0  0  0
   -1.5250   -0.0009    4.0483 C   0  0  0  0  0  4           0  0  0
   -3.3324   -1.0529    7.2393 C   0  0  0  0  0  4           0  0  0
   -0.5416    0.0000    1.3969 C   0  0  0  0  0  4           0  0  0
   -2.8464   -1.0498    5.9208 C   0  0  0  0  0  4           0  0  0
   -1.2881    1.2045    3.3713 C   0  0  0  0  0  4           0  0  0
   -1.2611   -1.2057    3.3801 C   0  0  0  0  0  4           0  0  0
   -1.7353    1.0439    6.3278 C   0  0  0  0  0  4           0  0  0
   -3.0091   -0.0018    8.0991 C   0  0  0  0  0  4           0  0  0
   -0.7994    1.2049    2.0619 C   0  0  0  0  0  4           0  0  0
   -0.7733   -1.2051    2.0705 C   0  0  0  0  0  4           0  0  0
   -2.2136    1.0437    7.6412 C   0  0  0  0  0  4           0  0  0
   -4.1737   -2.1423    7.7636 C   0  0  0  0  0  4           0  0  0
    1.7788    2.5157   -0.0058 C   0  0  0  0  0  4           0  0  0
    0.1710    3.8871   -1.0687 C   0  0  0  0  0  4           0  0  0
    0.0000    0.0000    0.0000 C   0  0  0  0  0  4           0  0  0
    1.7860   -2.5226    0.0017 C   0  0  0  0  0  4           0  0  0
    2.5369   -3.4026   -0.9951 C   0  0  0  0  0  4           0  0  0
    2.0700   -4.8582   -1.0241 C   0  0  0  0  0  4           0  0  0
    2.8570   -5.6766   -2.0351 C   0  0  0  0  0  4           0  0  0
  1  7  1  0     0  0
  2 22  2  0     0  0
  3 23  1  0     0  0
  3 24  1  0     0  0
  4 22  1  0     0  0
  5  8  1  0     0  0
  5  9  1  0     0  0
  5 25  1  0     0  0
  6  7  1  0     0  0
  6  8  2  0     0  0
  7  9  2  0     0  0
  8 26  1  0     0  0
  9 23  1  0     0  0
 10 11  1  0     0  0
 10 14  2  0     0  0
 10 17  1  0     0  0
 11 15  2  0     0  0
 11 16  1  0     0  0
 12 14  1  0     0  0
 12 18  2  0     0  0
 12 22  1  0     0  0
 13 19  2  0     0  0
 13 20  1  0     0  0
 13 25  1  0     0  0
 15 19  1  0     0  0
 16 20  2  0     0  0
 17 21  2  0     0  0
 18 21  1  0     0  0
 26 27  1  0     0  0
 27 28  1  0     0  0
 28 29  1  0     0  0
M  END
> <standard_type>
pIC50

> <# Confs.>
25

> <canonical_smiles>
ClC(N=C1CCCC)=C(COC)N1CC2=CC=C(C3=CC(C(O)=O)=CC=C3)C=C2

> <standard_relation>
=

> <Publication_ID>
nan

> <predicted_activity_value>
5.958607314841775

> <actual_activity_value>
5.5376020021010435

> <Compound>
18

> <standard_units>
nM

> hash
11305038322849973726

$$$$
18_
XXILIB    08252103443D 0   0.00000     0.00000

 29 31  0     1  0            999 V2000
    5.0074   -1.4914   -0.0122 Cl  0  0  0  0  0  1           0  0  0
   -4.6164   -2.1855    8.8991 O   0  0  0  0  0  2           0  0  0
    0.7380   -2.5888   -0.9589 O   0  0  0  0  0  2           0  0  0
   -4.3870   -3.0824    6.8163 O   0  0  0  0  0  2           0  0  0
    1.4523   -0.0000   -0.0000 N   0  0  0  0  0  3           0  0  0
    3.5393    0.7630   -0.0025 N   0  0  0  0  0  3           0  0  0
    3.5500   -0.6068   -0.0019 C   0  0  0  0  0  4           0  0  0
    2.2690    1.1150    0.0000 C   0  0  0  0  0  4           0  0  0
    2.2653   -1.1171    0.0044 C   0  0  0  0  0  4           0  0  0
   -2.0363   -0.0014    5.4330 C   0  0  0  0  0  4           0  0  0
   -1.5250   -0.0009    4.0483 C   0  0  0  0  0  4           0  0  0
   -3.3324   -1.0529    7.2393 C   0  0  0  0  0  4           0  0  0
   -0.5416    0.0000    1.3969 C   0  0  0  0  0  4           0  0  0
   -2.8464   -1.0498    5.9208 C   0  0  0  0  0  4           0  0  0
   -1.2881    1.2045    3.3713 C   0  0  0  0  0  4           0  0  0
   -1.2611   -1.2057    3.3801 C   0  0  0  0  0  4           0  0  0
   -1.7353    1.0439    6.3278 C   0  0  0  0  0  4           0  0  0
   -3.0091   -0.0018    8.0991 C   0  0  0  0  0  4           0  0  0
   -0.7994    1.2049    2.0619 C   0  0  0  0  0  4           0  0  0
   -0.7733   -1.2051    2.0705 C   0  0  0  0  0  4           0  0  0
   -2.2136    1.0437    7.6412 C   0  0  0  0  0  4           0  0  0
   -4.1737   -2.1423    7.7636 C   0  0  0  0  0  4           0  0  0
    1.7788   -2.5157    0.0058 C   0  0  0  0  0  4           0  0  0
    0.1768   -3.8913   -1.0604 C   0  0  0  0  0  4           0  0  0
    0.0000    0.0000    0.0000 C   0  0  0  0  0  4           0  0  0
    1.7860    2.5226   -0.0017 C   0  0  0  0  0  4           0  0  0
    2.5392    3.4009   -0.9983 C   0  0  0  0  0  4           0  0  0
    2.0724    4.8565   -1.0309 C   0  0  0  0  0  4           0  0  0
    2.8616    5.6732   -2.0414 C   0  0  0  0  0  4           0  0  0
  1  7  1  0     0  0
  2 22  2  0     0  0
  3 23  1  0     0  0
  3 24  1  0     0  0
  4 22  1  0     0  0
  5  8  1  0     0  0
  5  9  1  0     0  0
  5 25  1  0     0  0
  6  7  1  0     0  0
  6  8  2  0     0  0
  7  9  2  0     0  0
  8 26  1  0     0  0
  9 23  1  0     0  0
 10 11  1  0     0  0
 10 14  2  0     0  0
 10 17  1  0     0  0
 11 15  2  0     0  0
 11 16  1  0     0  0
 12 14  1  0     0  0
 12 18  2  0     0  0
 12 22  1  0     0  0
 13 19  2  0     0  0
 13 20  1  0     0  0
 13 25  1  0     0  0
 15 19  1  0     0  0
 16 20  2  0     0  0
 17 21  2  0     0  0
 18 21  1  0     0  0
 26 27  1  0     0  0
 27 28  1  0     0  0
 28 29  1  0     0  0
M  END
> <standard_type>
pIC50

> <# Confs.>
25

> <canonical_smiles>
ClC(N=C1CCCC)=C(COC)N1CC2=CC=C(C3=CC(C(O)=O)=CC=C3)C=C2

> <standard_relation>
=

> <Publication_ID>
nan

> <predicted_activity_value>
5.958607314841775

> <actual_activity_value>
5.5376020021010435

> <Compound>
18

> <standard_units>
nM

> hash
11305038322849973726

$$$$
18_
XXILIB    08252103443D 0   0.00000     0.00000

 29 31  0     1  0            999 V2000
    5.0074   -1.4914   -0.0122 Cl  0  0  0  0  0  1           0  0  0
   -2.3281    2.1797    9.7455 O   0  0  0  0  0  2           0  0  0
    0.7380   -2.5888   -0.9589 O   0  0  0  0  0  2           0  0  0
   -1.1492    3.0781    8.0140 O   0  0  0  0  0  2           0  0  0
    1.4523   -0.0000   -0.0000 N   0  0  0  0  0  3           0  0  0
    3.5393    0.7630   -0.0025 N   0  0  0  0  0  3           0  0  0
    3.5500   -0.6068   -0.0019 C   0  0  0  0  0  4           0  0  0
    2.2690    1.1150    0.0000 C   0  0  0  0  0  4           0  0  0
    2.2653   -1.1171    0.0044 C   0  0  0  0  0  4           0  0  0
   -2.0363   -0.0014    5.4330 C   0  0  0  0  0  4           0  0  0
   -1.5250   -0.0009    4.0483 C   0  0  0  0  0  4           0  0  0
   -2.2252    1.0485    7.6489 C   0  0  0  0  0  4           0  0  0
   -0.5416    0.0000    1.3969 C   0  0  0  0  0  4           0  0  0
   -1.7378    1.0465    6.3309 C   0  0  0  0  0  4           0  0  0
   -1.2881    1.2045    3.3713 C   0  0  0  0  0  4           0  0  0
   -1.2611   -1.2057    3.3801 C   0  0  0  0  0  4           0  0  0
   -2.8463   -1.0473    5.9168 C   0  0  0  0  0  4           0  0  0
   -3.0294   -0.0030    8.0916 C   0  0  0  0  0  4           0  0  0
   -0.7994    1.2049    2.0619 C   0  0  0  0  0  4           0  0  0
   -0.7733   -1.2051    2.0705 C   0  0  0  0  0  4           0  0  0
   -3.3362   -1.0480    7.2260 C   0  0  0  0  0  4           0  0  0
   -1.9268    2.1374    8.5948 C   0  0  0  0  0  4           0  0  0
    1.7788   -2.5157    0.0058 C   0  0  0  0  0  4           0  0  0
    0.1768   -3.8913   -1.0604 C   0  0  0  0  0  4           0  0  0
    0.0000    0.0000    0.0000 C   0  0  0  0  0  4           0  0  0
    1.7860    2.5226   -0.0017 C   0  0  0  0  0  4           0  0  0
    2.5392    3.4009   -0.9983 C   0  0  0  0  0  4           0  0  0
    2.0724    4.8565   -1.0309 C   0  0  0  0  0  4           0  0  0
    2.8616    5.6732   -2.0414 C   0  0  0  0  0  4           0  0  0
  1  7  1  0     0  0
  2 22  2  0     0  0
  3 23  1  0     0  0
  3 24  1  0     0  0
  4 22  1  0     0  0
  5  8  1  0     0  0
  5  9  1  0     0  0
  5 25  1  0     0  0
  6  7  1  0     0  0
  6  8  2  0     0  0
  7  9  2  0     0  0
  8 26  1  0     0  0
  9 23  1  0     0  0
 10 11  1  0     0  0
 10 14  2  0     0  0
 10 17  1  0     0  0
 11 15  2  0     0  0
 11 16  1  0     0  0
 12 14  1  0     0  0
 12 18  2  0     0  0
 12 22  1  0     0  0
 13 19  2  0     0  0
 13 20  1  0     0  0
 13 25  1  0     0  0
 15 19  1  0     0  0
 16 20  2  0     0  0
 17 21  2  0     0  0
 18 21  1  0     0  0
 26 27  1  0     0  0
 27 28  1  0     0  0
 28 29  1  0     0  0
M  END
> <standard_type>
pIC50

> <# Confs.>
25

> <canonical_smiles>
ClC(N=C1CCCC)=C(COC)N1CC2=CC=C(C3=CC(C(O)=O)=CC=C3)C=C2

> <standard_relation>
=

> <Publication_ID>
nan

> <predicted_activity_value>
5.958607314841775

> <actual_activity_value>
5.5376020021010435

> <Compound>
18

> <standard_units>
nM

> hash
11305038322849973726

$$$$
18_
XXILIB    08252103443D 0   0.00000     0.00000

 29 31  0     1  0            999 V2000
    5.0074   -1.4914   -0.0122 Cl  0  0  0  0  0  1           0  0  0
   -2.2710   -2.1506    9.7650 O   0  0  0  0  0  2           0  0  0
    0.7380   -2.5888   -0.9589 O   0  0  0  0  0  2           0  0  0
   -1.0749   -3.0372    8.0392 O   0  0  0  0  0  2           0  0  0
    1.4523   -0.0000   -0.0000 N   0  0  0  0  0  3           0  0  0
    3.5393    0.7630   -0.0025 N   0  0  0  0  0  3           0  0  0
    3.5500   -0.6068   -0.0019 C   0  0  0  0  0  4           0  0  0
    2.2690    1.1150    0.0000 C   0  0  0  0  0  4           0  0  0
    2.2653   -1.1171    0.0044 C   0  0  0  0  0  4           0  0  0
   -2.0363   -0.0014    5.4330 C   0  0  0  0  0  4           0  0  0
   -1.5250   -0.0009    4.0483 C   0  0  0  0  0  4           0  0  0
   -2.2019   -1.0388    7.6567 C   0  0  0  0  0  4           0  0  0
   -0.5416    0.0000    1.3969 C   0  0  0  0  0  4           0  0  0
   -1.7176   -1.0376    6.3376 C   0  0  0  0  0  4           0  0  0
   -1.2881    1.2045    3.3713 C   0  0  0  0  0  4           0  0  0
   -1.2611   -1.2057    3.3801 C   0  0  0  0  0  4           0  0  0
   -2.8626    1.0341    5.9116 C   0  0  0  0  0  4           0  0  0
   -3.0146    0.0073    8.0971 C   0  0  0  0  0  4           0  0  0
   -0.7994    1.2049    2.0619 C   0  0  0  0  0  4           0  0  0
   -0.7733   -1.2051    2.0705 C   0  0  0  0  0  4           0  0  0
   -3.3440    1.0390    7.2238 C   0  0  0  0  0  4           0  0  0
   -1.8733   -2.1097    8.6129 C   0  0  0  0  0  4           0  0  0
    1.7788   -2.5157    0.0058 C   0  0  0  0  0  4           0  0  0
    0.1768   -3.8913   -1.0604 C   0  0  0  0  0  4           0  0  0
    0.0000    0.0000    0.0000 C   0  0  0  0  0  4           0  0  0
    1.7860    2.5226   -0.0017 C   0  0  0  0  0  4           0  0  0
    2.5392    3.4009   -0.9983 C   0  0  0  0  0  4           0  0  0
    2.0724    4.8565   -1.0309 C   0  0  0  0  0  4           0  0  0
    2.8616    5.6732   -2.0414 C   0  0  0  0  0  4           0  0  0
  1  7  1  0     0  0
  2 22  2  0     0  0
  3 23  1  0     0  0
  3 24  1  0     0  0
  4 22  1  0     0  0
  5  8  1  0     0  0
  5  9  1  0     0  0
  5 25  1  0     0  0
  6  7  1  0     0  0
  6  8  2  0     0  0
  7  9  2  0     0  0
  8 26  1  0     0  0
  9 23  1  0     0  0
 10 11  1  0     0  0
 10 14  2  0     0  0
 10 17  1  0     0  0
 11 15  2  0     0  0
 11 16  1  0     0  0
 12 14  1  0     0  0
 12 18  2  0     0  0
 12 22  1  0     0  0
 13 19  2  0     0  0
 13 20  1  0     0  0
 13 25  1  0     0  0
 15 19  1  0     0  0
 16 20  2  0     0  0
 17 21  2  0     0  0
 18 21  1  0     0  0
 26 27  1  0     0  0
 27 28  1  0     0  0
 28 29  1  0     0  0
M  END
> <standard_type>
pIC50

> <# Confs.>
25

> <canonical_smiles>
ClC(N=C1CCCC)=C(COC)N1CC2=CC=C(C3=CC(C(O)=O)=CC=C3)C=C2

> <standard_relation>
=

> <Publication_ID>
nan

> <predicted_activity_value>
5.958607314841775

> <actual_activity_value>
5.5376020021010435

> <Compound>
18

> <standard_units>
nM

> hash
11305038322849973726

$$$$
18_
XXILIB    08252103443D 0   0.00000     0.00000

 29 31  0     1  0            999 V2000
    5.0074   -1.4914   -0.0122 Cl  0  0  0  0  0  1           0  0  0
   -4.6735    2.1449    8.8796 O   0  0  0  0  0  2           0  0  0
    0.7380   -2.5888   -0.9589 O   0  0  0  0  0  2           0  0  0
   -4.4613    3.0328    6.7911 O   0  0  0  0  0  2           0  0  0
    1.4523   -0.0000   -0.0000 N   0  0  0  0  0  3           0  0  0
    3.5393    0.7630   -0.0025 N   0  0  0  0  0  3           0  0  0
    3.5500   -0.6068   -0.0019 C   0  0  0  0  0  4           0  0  0
    2.2690    1.1150    0.0000 C   0  0  0  0  0  4           0  0  0
    2.2653   -1.1171    0.0044 C   0  0  0  0  0  4           0  0  0
   -2.0363   -0.0014    5.4330 C   0  0  0  0  0  4           0  0  0
   -1.5250   -0.0009    4.0483 C   0  0  0  0  0  4           0  0  0
   -3.3557    1.0344    7.2315 C   0  0  0  0  0  4           0  0  0
   -0.5416    0.0000    1.3969 C   0  0  0  0  0  4           0  0  0
   -2.8665    1.0342    5.9142 C   0  0  0  0  0  4           0  0  0
   -1.2881    1.2045    3.3713 C   0  0  0  0  0  4           0  0  0
   -1.2611   -1.2057    3.3801 C   0  0  0  0  0  4           0  0  0
   -1.7190   -1.0374    6.3330 C   0  0  0  0  0  4           0  0  0
   -3.0239   -0.0121    8.0937 C   0  0  0  0  0  4           0  0  0
   -0.7994    1.2049    2.0619 C   0  0  0  0  0  4           0  0  0
   -0.7733   -1.2051    2.0705 C   0  0  0  0  0  4           0  0  0
   -2.2058   -1.0434    7.6433 C   0  0  0  0  0  4           0  0  0
   -4.2271    2.1048    7.7455 C   0  0  0  0  0  4           0  0  0
    1.7788   -2.5157    0.0058 C   0  0  0  0  0  4           0  0  0
    0.1768   -3.8913   -1.0604 C   0  0  0  0  0  4           0  0  0
    0.0000    0.0000    0.0000 C   0  0  0  0  0  4           0  0  0
    1.7860    2.5226   -0.0017 C   0  0  0  0  0  4           0  0  0
    2.5392    3.4009   -0.9983 C   0  0  0  0  0  4           0  0  0
    2.0724    4.8565   -1.0309 C   0  0  0  0  0  4           0  0  0
    2.8616    5.6732   -2.0414 C   0  0  0  0  0  4           0  0  0
  1  7  1  0     0  0
  2 22  2  0     0  0
  3 23  1  0     0  0
  3 24  1  0     0  0
  4 22  1  0     0  0
  5  8  1  0     0  0
  5  9  1  0     0  0
  5 25  1  0     0  0
  6  7  1  0     0  0
  6  8  2  0     0  0
  7  9  2  0     0  0
  8 26  1  0     0  0
  9 23  1  0     0  0
 10 11  1  0     0  0
 10 14  2  0     0  0
 10 17  1  0     0  0
 11 15  2  0     0  0
 11 16  1  0     0  0
 12 14  1  0     0  0
 12 18  2  0     0  0
 12 22  1  0     0  0
 13 19  2  0     0  0
 13 20  1  0     0  0
 13 25  1  0     0  0
 15 19  1  0     0  0
 16 20  2  0     0  0
 17 21  2  0     0  0
 18 21  1  0     0  0
 26 27  1  0     0  0
 27 28  1  0     0  0
 28 29  1  0     0  0
M  END
> <standard_type>
pIC50

> <# Confs.>
25

> <canonical_smiles>
ClC(N=C1CCCC)=C(COC)N1CC2=CC=C(C3=CC(C(O)=O)=CC=C3)C=C2

> <standard_relation>
=

> <Publication_ID>
nan

> <predicted_activity_value>
5.958607314841775

> <actual_activity_value>
5.5376020021010435

> <Compound>
18

> <standard_units>
nM

> hash
11305038322849973726

$$$$
18_
XXILIB    08252103443D 0   0.00000     0.00000

 29 31  0     1  0            999 V2000
    5.0074    1.4914    0.0122 Cl  0  0  0  0  0  1           0  0  0
   -5.9372    0.5219    8.3436 O   0  0  0  0  0  2           0  0  0
    1.6404    2.9003   -1.3667 O   0  0  0  0  0  2           0  0  0
   -6.1076    0.8014    6.0880 O   0  0  0  0  0  2           0  0  0
    1.4523   -0.0000   -0.0000 N   0  0  0  0  0  3           0  0  0
    3.5393   -0.7630    0.0025 N   0  0  0  0  0  3           0  0  0
    3.5500    0.6068    0.0019 C   0  0  0  0  0  4           0  0  0
    2.2690   -1.1150    0.0000 C   0  0  0  0  0  4           0  0  0
    2.2653    1.1171   -0.0044 C   0  0  0  0  0  4           0  0  0
   -2.1413   -0.0452    5.3923 C   0  0  0  0  0  4           0  0  0
   -1.5917   -0.0287    4.0225 C   0  0  0  0  0  4           0  0  0
   -4.0245    0.2291    6.9501 C   0  0  0  0  0  4           0  0  0
   -0.5416   -0.0000    1.3969 C   0  0  0  0  0  4           0  0  0
   -3.4992    0.2462    5.6469 C   0  0  0  0  0  4           0  0  0
   -0.5222   -0.8642    3.6683 C   0  0  0  0  0  4           0  0  0
   -2.1293    0.8200    3.0435 C   0  0  0  0  0  4           0  0  0
   -1.3340   -0.3550    6.5042 C   0  0  0  0  0  4           0  0  0
   -3.1948   -0.0873    8.0272 C   0  0  0  0  0  4           0  0  0
   -0.0050   -0.8520    2.3698 C   0  0  0  0  0  4           0  0  0
   -1.6116    0.8327    1.7455 C   0  0  0  0  0  4           0  0  0
   -1.8528   -0.3765    7.8020 C   0  0  0  0  0  4           0  0  0
   -5.4398    0.5253    7.2302 C   0  0  0  0  0  4           0  0  0
    1.7788    2.5157   -0.0058 C   0  0  0  0  0  4           0  0  0
    1.1753    4.2360   -1.5130 C   0  0  0  0  0  4           0  0  0
    0.0000   -0.0000    0.0000 C   0  0  0  0  0  4           0  0  0
    1.7860   -2.5226    0.0017 C   0  0  0  0  0  4           0  0  0
    2.5369   -3.4026   -0.9951 C   0  0  0  0  0  4           0  0  0
    2.4253   -2.9414   -2.4485 C   0  0  0  0  0  4           0  0  0
    3.1939   -3.8591   -3.3858 C   0  0  0  0  0  4           0  0  0
  1  7  1  0     0  0
  2 22  2  0     0  0
  3 23  1  0     0  0
  3 24  1  0     0  0
  4 22  1  0     0  0
  5  8  1  0     0  0
  5  9  1  0     0  0
  5 25  1  0     0  0
  6  7  1  0     0  0
  6  8  2  0     0  0
  7  9  2  0     0  0
  8 26  1  0     0  0
  9 23  1  0     0  0
 10 11  1  0     0  0
 10 14  2  0     0  0
 10 17  1  0     0  0
 11 15  2  0     0  0
 11 16  1  0     0  0
 12 14  1  0     0  0
 12 18  2  0     0  0
 12 22  1  0     0  0
 13 19  2  0     0  0
 13 20  1  0     0  0
 13 25  1  0     0  0
 15 19  1  0     0  0
 16 20  2  0     0  0
 17 21  2  0     0  0
 18 21  1  0     0  0
 26 27  1  0     0  0
 27 28  1  0     0  0
 28 29  1  0     0  0
M  END
> <standard_type>
pIC50

> <# Confs.>
25

> <canonical_smiles>
ClC(N=C1CCCC)=C(COC)N1CC2=CC=C(C3=CC(C(O)=O)=CC=C3)C=C2

> <standard_relation>
=

> <Publication_ID>
nan

> <predicted_activity_value>
5.958607314841775

> <actual_activity_value>
5.5376020021010435

> <Compound>
18

> <standard_units>
nM

> hash
11305038322849973726

$$$$
18_
XXILIB    08252103443D 0   0.00000     0.00000

 29 31  0     1  0            999 V2000
    5.0074    1.4914    0.0122 Cl  0  0  0  0  0  1           0  0  0
   -1.4328   -0.7052   10.1360 O   0  0  0  0  0  2           0  0  0
    1.6404    2.9003   -1.3667 O   0  0  0  0  0  2           0  0  0
    0.2515   -0.9392    8.6183 O   0  0  0  0  0  2           0  0  0
    1.4523   -0.0000   -0.0000 N   0  0  0  0  0  3           0  0  0
    3.5393   -0.7630    0.0025 N   0  0  0  0  0  3           0  0  0
    3.5500    0.6068    0.0019 C   0  0  0  0  0  4           0  0  0
    2.2690   -1.1150    0.0000 C   0  0  0  0  0  4           0  0  0
    2.2653    1.1171   -0.0044 C   0  0  0  0  0  4           0  0  0
   -2.1413   -0.0452    5.3923 C   0  0  0  0  0  4           0  0  0
   -1.5917   -0.0287    4.0225 C   0  0  0  0  0  4           0  0  0
   -1.8546   -0.3675    7.8135 C   0  0  0  0  0  4           0  0  0
   -0.5416   -0.0000    1.3969 C   0  0  0  0  0  4           0  0  0
   -1.3335   -0.3532    6.5086 C   0  0  0  0  0  4           0  0  0
   -0.5222   -0.8642    3.6683 C   0  0  0  0  0  4           0  0  0
   -2.1293    0.8200    3.0435 C   0  0  0  0  0  4           0  0  0
   -3.4958    0.2481    5.6442 C   0  0  0  0  0  4           0  0  0
   -3.2012   -0.0667    8.0249 C   0  0  0  0  0  4           0  0  0
   -0.0050   -0.8520    2.3698 C   0  0  0  0  0  4           0  0  0
   -1.6116    0.8327    1.7455 C   0  0  0  0  0  4           0  0  0
   -4.0180    0.2383    6.9407 C   0  0  0  0  0  4           0  0  0
   -1.0228   -0.6813    8.9878 C   0  0  0  0  0  4           0  0  0
    1.7788    2.5157   -0.0058 C   0  0  0  0  0  4           0  0  0
    1.1753    4.2360   -1.5130 C   0  0  0  0  0  4           0  0  0
    0.0000   -0.0000    0.0000 C   0  0  0  0  0  4           0  0  0
    1.7860   -2.5226    0.0017 C   0  0  0  0  0  4           0  0  0
    2.5369   -3.4026   -0.9951 C   0  0  0  0  0  4           0  0  0
    2.4253   -2.9414   -2.4485 C   0  0  0  0  0  4           0  0  0
    3.1939   -3.8591   -3.3858 C   0  0  0  0  0  4           0  0  0
  1  7  1  0     0  0
  2 22  2  0     0  0
  3 23  1  0     0  0
  3 24  1  0     0  0
  4 22  1  0     0  0
  5  8  1  0     0  0
  5  9  1  0     0  0
  5 25  1  0     0  0
  6  7  1  0     0  0
  6  8  2  0     0  0
  7  9  2  0     0  0
  8 26  1  0     0  0
  9 23  1  0     0  0
 10 11  1  0     0  0
 10 14  2  0     0  0
 10 17  1  0     0  0
 11 15  2  0     0  0
 11 16  1  0     0  0
 12 14  1  0     0  0
 12 18  2  0     0  0
 12 22  1  0     0  0
 13 19  2  0     0  0
 13 20  1  0     0  0
 13 25  1  0     0  0
 15 19  1  0     0  0
 16 20  2  0     0  0
 17 21  2  0     0  0
 18 21  1  0     0  0
 26 27  1  0     0  0
 27 28  1  0     0  0
 28 29  1  0     0  0
M  END
> <standard_type>
pIC50

> <# Confs.>
25

> <canonical_smiles>
ClC(N=C1CCCC)=C(COC)N1CC2=CC=C(C3=CC(C(O)=O)=CC=C3)C=C2

> <standard_relation>
=

> <Publication_ID>
nan

> <predicted_activity_value>
5.958607314841775

> <actual_activity_value>
5.5376020021010435

> <Compound>
18

> <standard_units>
nM

> hash
11305038322849973726

$$$$
18_
XXILIB    08252103443D 0   0.00000     0.00000

 29 31  0     1  0            999 V2000
    5.0074   -1.4914   -0.0122 Cl  0  0  0  0  0  1           0  0  0
   -5.9175   -0.5852    8.3539 O   0  0  0  0  0  2           0  0  0
    1.6478   -2.9056   -1.3543 O   0  0  0  0  0  2           0  0  0
   -6.0841   -0.8857    6.1007 O   0  0  0  0  0  2           0  0  0
    1.4523    0.0000    0.0000 N   0  0  0  0  0  3           0  0  0
    3.5393    0.7630   -0.0025 N   0  0  0  0  0  3           0  0  0
    3.5500   -0.6068   -0.0019 C   0  0  0  0  0  4           0  0  0
    2.2690    1.1150    0.0000 C   0  0  0  0  0  4           0  0  0
    2.2653   -1.1171    0.0044 C   0  0  0  0  0  4           0  0  0
   -2.1394    0.0473    5.3930 C   0  0  0  0  0  4           0  0  0
   -1.5905    0.0300    4.0229 C   0  0  0  0  0  4           0  0  0
   -4.0152   -0.2533    6.9549 C   0  0  0  0  0  4           0  0  0
   -0.5416    0.0000    1.3969 C   0  0  0  0  0  4           0  0  0
   -3.4914   -0.2674    5.6510 C   0  0  0  0  0  4           0  0  0
   -2.1104   -0.8392    3.0525 C   0  0  0  0  0  4           0  0  0
   -0.5395    0.8852    3.6599 C   0  0  0  0  0  4           0  0  0
   -1.3362    0.3764    6.5023 C   0  0  0  0  0  4           0  0  0
   -3.1873    0.0732    8.0304 C   0  0  0  0  0  4           0  0  0
   -1.5938   -0.8520    1.7539 C   0  0  0  0  0  4           0  0  0
   -0.0225    0.8716    2.3616 C   0  0  0  0  0  4           0  0  0
   -1.8518    0.3886    7.8015 C   0  0  0  0  0  4           0  0  0
   -5.4217   -0.5847    7.2398 C   0  0  0  0  0  4           0  0  0
    1.7788   -2.5157    0.0058 C   0  0  0  0  0  4           0  0  0
    1.1835   -4.2419   -1.4980 C   0  0  0  0  0  4           0  0  0
   -0.0000    0.0000    0.0000 C   0  0  0  0  0  4           0  0  0
    1.7860    2.5226   -0.0017 C   0  0  0  0  0  4           0  0  0
    2.5392    3.4009   -0.9983 C   0  0  0  0  0  4           0  0  0
    2.4309    2.9373   -2.4512 C   0  0  0  0  0  4           0  0  0
    3.2016    3.8534   -3.3882 C   0  0  0  0  0  4           0  0  0
  1  7  1  0     0  0
  2 22  2  0     0  0
  3 23  1  0     0  0
  3 24  1  0     0  0
  4 22  1  0     0  0
  5  8  1  0     0  0
  5  9  1  0     0  0
  5 25  1  0     0  0
  6  7  1  0     0  0
  6  8  2  0     0  0
  7  9  2  0     0  0
  8 26  1  0     0  0
  9 23  1  0     0  0
 10 11  1  0     0  0
 10 14  2  0     0  0
 10 17  1  0     0  0
 11 15  2  0     0  0
 11 16  1  0     0  0
 12 14  1  0     0  0
 12 18  2  0     0  0
 12 22  1  0     0  0
 13 19  2  0     0  0
 13 20  1  0     0  0
 13 25  1  0     0  0
 15 19  1  0     0  0
 16 20  2  0     0  0
 17 21  2  0     0  0
 18 21  1  0     0  0
 26 27  1  0     0  0
 27 28  1  0     0  0
 28 29  1  0     0  0
M  END
> <standard_type>
pIC50

> <# Confs.>
25

> <canonical_smiles>
ClC(N=C1CCCC)=C(COC)N1CC2=CC=C(C3=CC(C(O)=O)=CC=C3)C=C2

> <standard_relation>
=

> <Publication_ID>
nan

> <predicted_activity_value>
5.958607314841775

> <actual_activity_value>
5.5376020021010435

> <Compound>
18

> <standard_units>
nM

> hash
11305038322849973726

$$$$
18_
XXILIB    08252103443D 0   0.00000     0.00000

 29 31  0     1  0            999 V2000
    5.0074   -1.4914   -0.0122 Cl  0  0  0  0  0  1           0  0  0
   -1.4449    0.7766   10.1287 O   0  0  0  0  0  2           0  0  0
    1.6478   -2.9056   -1.3543 O   0  0  0  0  0  2           0  0  0
    0.2338    1.0296    8.6078 O   0  0  0  0  0  2           0  0  0
    1.4523    0.0000    0.0000 N   0  0  0  0  0  3           0  0  0
    3.5393    0.7630   -0.0025 N   0  0  0  0  0  3           0  0  0
    3.5500   -0.6068   -0.0019 C   0  0  0  0  0  4           0  0  0
    2.2690    1.1150    0.0000 C   0  0  0  0  0  4           0  0  0
    2.2653   -1.1171    0.0044 C   0  0  0  0  0  4           0  0  0
   -2.1394    0.0473    5.3930 C   0  0  0  0  0  4           0  0  0
   -1.5905    0.0300    4.0229 C   0  0  0  0  0  4           0  0  0
   -1.8581    0.3979    7.8109 C   0  0  0  0  0  4           0  0  0
   -0.5416    0.0000    1.3969 C   0  0  0  0  0  4           0  0  0
   -1.3368    0.3792    6.5061 C   0  0  0  0  0  4           0  0  0
   -2.1104   -0.8392    3.0525 C   0  0  0  0  0  4           0  0  0
   -0.5395    0.8852    3.6599 C   0  0  0  0  0  4           0  0  0
   -3.4892   -0.2647    5.6478 C   0  0  0  0  0  4           0  0  0
   -3.2023    0.0877    8.0242 C   0  0  0  0  0  4           0  0  0
   -1.5938   -0.8520    1.7539 C   0  0  0  0  0  4           0  0  0
   -0.0225    0.8716    2.3616 C   0  0  0  0  0  4           0  0  0
   -4.0132   -0.2442    6.9435 C   0  0  0  0  0  4           0  0  0
   -1.0344    0.7477    8.9807 C   0  0  0  0  0  4           0  0  0
    1.7788   -2.5157    0.0058 C   0  0  0  0  0  4           0  0  0
    1.1835   -4.2419   -1.4980 C   0  0  0  0  0  4           0  0  0
   -0.0000    0.0000    0.0000 C   0  0  0  0  0  4           0  0  0
    1.7860    2.5226   -0.0017 C   0  0  0  0  0  4           0  0  0
    2.5392    3.4009   -0.9983 C   0  0  0  0  0  4           0  0  0
    2.4309    2.9373   -2.4512 C   0  0  0  0  0  4           0  0  0
    3.2016    3.8534   -3.3882 C   0  0  0  0  0  4           0  0  0
  1  7  1  0     0  0
  2 22  2  0     0  0
  3 23  1  0     0  0
  3 24  1  0     0  0
  4 22  1  0     0  0
  5  8  1  0     0  0
  5  9  1  0     0  0
  5 25  1  0     0  0
  6  7  1  0     0  0
  6  8  2  0     0  0
  7  9  2  0     0  0
  8 26  1  0     0  0
  9 23  1  0     0  0
 10 11  1  0     0  0
 10 14  2  0     0  0
 10 17  1  0     0  0
 11 15  2  0     0  0
 11 16  1  0     0  0
 12 14  1  0     0  0
 12 18  2  0     0  0
 12 22  1  0     0  0
 13 19  2  0     0  0
 13 20  1  0     0  0
 13 25  1  0     0  0
 15 19  1  0     0  0
 16 20  2  0     0  0
 17 21  2  0     0  0
 18 21  1  0     0  0
 26 27  1  0     0  0
 27 28  1  0     0  0
 28 29  1  0     0  0
M  END
> <standard_type>
pIC50

> <# Confs.>
25

> <canonical_smiles>
ClC(N=C1CCCC)=C(COC)N1CC2=CC=C(C3=CC(C(O)=O)=CC=C3)C=C2

> <standard_relation>
=

> <Publication_ID>
nan

> <predicted_activity_value>
5.958607314841775

> <actual_activity_value>
5.5376020021010435

> <Compound>
18

> <standard_units>
nM

> hash
11305038322849973726

$$$$
18_
XXILIB    08252103443D 0   0.00000     0.00000

 29 31  0     1  0            999 V2000
    5.0074   -1.4914   -0.0122 Cl  0  0  0  0  0  1           0  0  0
   -5.9175   -0.5852    8.3539 O   0  0  0  0  0  2           0  0  0
    1.6478   -2.9056   -1.3543 O   0  0  0  0  0  2           0  0  0
   -6.0841   -0.8857    6.1007 O   0  0  0  0  0  2           0  0  0
    1.4523    0.0000    0.0000 N   0  0  0  0  0  3           0  0  0
    3.5393    0.7630   -0.0025 N   0  0  0  0  0  3           0  0  0
    3.5500   -0.6068   -0.0019 C   0  0  0  0  0  4           0  0  0
    2.2690    1.1150    0.0000 C   0  0  0  0  0  4           0  0  0
    2.2653   -1.1171    0.0044 C   0  0  0  0  0  4           0  0  0
   -2.1394    0.0473    5.3930 C   0  0  0  0  0  4           0  0  0
   -1.5905    0.0300    4.0229 C   0  0  0  0  0  4           0  0  0
   -4.0152   -0.2533    6.9549 C   0  0  0  0  0  4           0  0  0
   -0.5416    0.0000    1.3969 C   0  0  0  0  0  4           0  0  0
   -3.4914   -0.2674    5.6510 C   0  0  0  0  0  4           0  0  0
   -2.1104   -0.8392    3.0525 C   0  0  0  0  0  4           0  0  0
   -0.5395    0.8852    3.6599 C   0  0  0  0  0  4           0  0  0
   -1.3362    0.3764    6.5023 C   0  0  0  0  0  4           0  0  0
   -3.1873    0.0732    8.0304 C   0  0  0  0  0  4           0  0  0
   -1.5938   -0.8520    1.7539 C   0  0  0  0  0  4           0  0  0
   -0.0225    0.8716    2.3616 C   0  0  0  0  0  4           0  0  0
   -1.8518    0.3886    7.8015 C   0  0  0  0  0  4           0  0  0
   -5.4217   -0.5847    7.2398 C   0  0  0  0  0  4           0  0  0
    1.7788   -2.5157    0.0058 C   0  0  0  0  0  4           0  0  0
    1.1835   -4.2419   -1.4980 C   0  0  0  0  0  4           0  0  0
   -0.0000    0.0000    0.0000 C   0  0  0  0  0  4           0  0  0
    1.7860    2.5226   -0.0017 C   0  0  0  0  0  4           0  0  0
    2.5392    3.4009   -0.9983 C   0  0  0  0  0  4           0  0  0
    2.0724    4.8565   -1.0309 C   0  0  0  0  0  4           0  0  0
    2.8616    5.6732   -2.0414 C   0  0  0  0  0  4           0  0  0
  1  7  1  0     0  0
  2 22  2  0     0  0
  3 23  1  0     0  0
  3 24  1  0     0  0
  4 22  1  0     0  0
  5  8  1  0     0  0
  5  9  1  0     0  0
  5 25  1  0     0  0
  6  7  1  0     0  0
  6  8  2  0     0  0
  7  9  2  0     0  0
  8 26  1  0     0  0
  9 23  1  0     0  0
 10 11  1  0     0  0
 10 14  2  0     0  0
 10 17  1  0     0  0
 11 15  2  0     0  0
 11 16  1  0     0  0
 12 14  1  0     0  0
 12 18  2  0     0  0
 12 22  1  0     0  0
 13 19  2  0     0  0
 13 20  1  0     0  0
 13 25  1  0     0  0
 15 19  1  0     0  0
 16 20  2  0     0  0
 17 21  2  0     0  0
 18 21  1  0     0  0
 26 27  1  0     0  0
 27 28  1  0     0  0
 28 29  1  0     0  0
M  END
> <standard_type>
pIC50

> <# Confs.>
25

> <canonical_smiles>
ClC(N=C1CCCC)=C(COC)N1CC2=CC=C(C3=CC(C(O)=O)=CC=C3)C=C2

> <standard_relation>
=

> <Publication_ID>
nan

> <predicted_activity_value>
5.958607314841775

> <actual_activity_value>
5.5376020021010435

> <Compound>
18

> <standard_units>
nM

> hash
11305038322849973726

$$$$
18_
XXILIB    08252103443D 0   0.00000     0.00000

 29 31  0     1  0            999 V2000
    5.0074   -1.4914   -0.0122 Cl  0  0  0  0  0  1           0  0  0
   -1.4449    0.7766   10.1287 O   0  0  0  0  0  2           0  0  0
    1.6478   -2.9056   -1.3543 O   0  0  0  0  0  2           0  0  0
    0.2338    1.0296    8.6078 O   0  0  0  0  0  2           0  0  0
    1.4523    0.0000    0.0000 N   0  0  0  0  0  3           0  0  0
    3.5393    0.7630   -0.0025 N   0  0  0  0  0  3           0  0  0
    3.5500   -0.6068   -0.0019 C   0  0  0  0  0  4           0  0  0
    2.2690    1.1150    0.0000 C   0  0  0  0  0  4           0  0  0
    2.2653   -1.1171    0.0044 C   0  0  0  0  0  4           0  0  0
   -2.1394    0.0473    5.3930 C   0  0  0  0  0  4           0  0  0
   -1.5905    0.0300    4.0229 C   0  0  0  0  0  4           0  0  0
   -1.8581    0.3979    7.8109 C   0  0  0  0  0  4           0  0  0
   -0.5416    0.0000    1.3969 C   0  0  0  0  0  4           0  0  0
   -1.3368    0.3792    6.5061 C   0  0  0  0  0  4           0  0  0
   -2.1104   -0.8392    3.0525 C   0  0  0  0  0  4           0  0  0
   -0.5395    0.8852    3.6599 C   0  0  0  0  0  4           0  0  0
   -3.4892   -0.2647    5.6478 C   0  0  0  0  0  4           0  0  0
   -3.2023    0.0877    8.0242 C   0  0  0  0  0  4           0  0  0
   -1.5938   -0.8520    1.7539 C   0  0  0  0  0  4           0  0  0
   -0.0225    0.8716    2.3616 C   0  0  0  0  0  4           0  0  0
   -4.0132   -0.2442    6.9435 C   0  0  0  0  0  4           0  0  0
   -1.0344    0.7477    8.9807 C   0  0  0  0  0  4           0  0  0
    1.7788   -2.5157    0.0058 C   0  0  0  0  0  4           0  0  0
    1.1835   -4.2419   -1.4980 C   0  0  0  0  0  4           0  0  0
   -0.0000    0.0000    0.0000 C   0  0  0  0  0  4           0  0  0
    1.7860    2.5226   -0.0017 C   0  0  0  0  0  4           0  0  0
    2.5392    3.4009   -0.9983 C   0  0  0  0  0  4           0  0  0
    2.0724    4.8565   -1.0309 C   0  0  0  0  0  4           0  0  0
    2.8616    5.6732   -2.0414 C   0  0  0  0  0  4           0  0  0
  1  7  1  0     0  0
  2 22  2  0     0  0
  3 23  1  0     0  0
  3 24  1  0     0  0
  4 22  1  0     0  0
  5  8  1  0     0  0
  5  9  1  0     0  0
  5 25  1  0     0  0
  6  7  1  0     0  0
  6  8  2  0     0  0
  7  9  2  0     0  0
  8 26  1  0     0  0
  9 23  1  0     0  0
 10 11  1  0     0  0
 10 14  2  0     0  0
 10 17  1  0     0  0
 11 15  2  0     0  0
 11 16  1  0     0  0
 12 14  1  0     0  0
 12 18  2  0     0  0
 12 22  1  0     0  0
 13 19  2  0     0  0
 13 20  1  0     0  0
 13 25  1  0     0  0
 15 19  1  0     0  0
 16 20  2  0     0  0
 17 21  2  0     0  0
 18 21  1  0     0  0
 26 27  1  0     0  0
 27 28  1  0     0  0
 28 29  1  0     0  0
M  END
> <standard_type>
pIC50

> <# Confs.>
25

> <canonical_smiles>
ClC(N=C1CCCC)=C(COC)N1CC2=CC=C(C3=CC(C(O)=O)=CC=C3)C=C2

> <standard_relation>
=

> <Publication_ID>
nan

> <predicted_activity_value>
5.958607314841775

> <actual_activity_value>
5.5376020021010435

> <Compound>
18

> <standard_units>
nM

> hash
11305038322849973726

$$$$
18_
XXILIB    08252103443D 0   0.00000     0.00000

 29 31  0     1  0            999 V2000
    5.0074    1.4914    0.0122 Cl  0  0  0  0  0  1           0  0  0
   -5.9372    0.5219    8.3436 O   0  0  0  0  0  2           0  0  0
    1.6404    2.9003   -1.3667 O   0  0  0  0  0  2           0  0  0
   -6.1076    0.8014    6.0880 O   0  0  0  0  0  2           0  0  0
    1.4523   -0.0000   -0.0000 N   0  0  0  0  0  3           0  0  0
    3.5393   -0.7630    0.0025 N   0  0  0  0  0  3           0  0  0
    3.5500    0.6068    0.0019 C   0  0  0  0  0  4           0  0  0
    2.2690   -1.1150    0.0000 C   0  0  0  0  0  4           0  0  0
    2.2653    1.1171   -0.0044 C   0  0  0  0  0  4           0  0  0
   -2.1413   -0.0452    5.3923 C   0  0  0  0  0  4           0  0  0
   -1.5917   -0.0287    4.0225 C   0  0  0  0  0  4           0  0  0
   -4.0245    0.2291    6.9501 C   0  0  0  0  0  4           0  0  0
   -0.5416   -0.0000    1.3969 C   0  0  0  0  0  4           0  0  0
   -3.4992    0.2462    5.6469 C   0  0  0  0  0  4           0  0  0
   -0.5222   -0.8642    3.6683 C   0  0  0  0  0  4           0  0  0
   -2.1293    0.8200    3.0435 C   0  0  0  0  0  4           0  0  0
   -1.3340   -0.3550    6.5042 C   0  0  0  0  0  4           0  0  0
   -3.1948   -0.0873    8.0272 C   0  0  0  0  0  4           0  0  0
   -0.0050   -0.8520    2.3698 C   0  0  0  0  0  4           0  0  0
   -1.6116    0.8327    1.7455 C   0  0  0  0  0  4           0  0  0
   -1.8528   -0.3765    7.8020 C   0  0  0  0  0  4           0  0  0
   -5.4398    0.5253    7.2302 C   0  0  0  0  0  4           0  0  0
    1.7788    2.5157   -0.0058 C   0  0  0  0  0  4           0  0  0
    1.1753    4.2360   -1.5130 C   0  0  0  0  0  4           0  0  0
    0.0000   -0.0000    0.0000 C   0  0  0  0  0  4           0  0  0
    1.7860   -2.5226    0.0017 C   0  0  0  0  0  4           0  0  0
    2.5369   -3.4026   -0.9951 C   0  0  0  0  0  4           0  0  0
    2.0700   -4.8582   -1.0241 C   0  0  0  0  0  4           0  0  0
    2.8570   -5.6766   -2.0351 C   0  0  0  0  0  4           0  0  0
  1  7  1  0     0  0
  2 22  2  0     0  0
  3 23  1  0     0  0
  3 24  1  0     0  0
  4 22  1  0     0  0
  5  8  1  0     0  0
  5  9  1  0     0  0
  5 25  1  0     0  0
  6  7  1  0     0  0
  6  8  2  0     0  0
  7  9  2  0     0  0
  8 26  1  0     0  0
  9 23  1  0     0  0
 10 11  1  0     0  0
 10 14  2  0     0  0
 10 17  1  0     0  0
 11 15  2  0     0  0
 11 16  1  0     0  0
 12 14  1  0     0  0
 12 18  2  0     0  0
 12 22  1  0     0  0
 13 19  2  0     0  0
 13 20  1  0     0  0
 13 25  1  0     0  0
 15 19  1  0     0  0
 16 20  2  0     0  0
 17 21  2  0     0  0
 18 21  1  0     0  0
 26 27  1  0     0  0
 27 28  1  0     0  0
 28 29  1  0     0  0
M  END
> <standard_type>
pIC50

> <# Confs.>
25

> <canonical_smiles>
ClC(N=C1CCCC)=C(COC)N1CC2=CC=C(C3=CC(C(O)=O)=CC=C3)C=C2

> <standard_relation>
=

> <Publication_ID>
nan

> <predicted_activity_value>
5.958607314841775

> <actual_activity_value>
5.5376020021010435

> <Compound>
18

> <standard_units>
nM

> hash
11305038322849973726

$$$$
18_
XXILIB    08252103443D 0   0.00000     0.00000

 29 31  0     1  0            999 V2000
    5.0074    1.4914    0.0122 Cl  0  0  0  0  0  1           0  0  0
   -1.4328   -0.7052   10.1360 O   0  0  0  0  0  2           0  0  0
    1.6404    2.9003   -1.3667 O   0  0  0  0  0  2           0  0  0
    0.2515   -0.9392    8.6183 O   0  0  0  0  0  2           0  0  0
    1.4523   -0.0000   -0.0000 N   0  0  0  0  0  3           0  0  0
    3.5393   -0.7630    0.0025 N   0  0  0  0  0  3           0  0  0
    3.5500    0.6068    0.0019 C   0  0  0  0  0  4           0  0  0
    2.2690   -1.1150    0.0000 C   0  0  0  0  0  4           0  0  0
    2.2653    1.1171   -0.0044 C   0  0  0  0  0  4           0  0  0
   -2.1413   -0.0452    5.3923 C   0  0  0  0  0  4           0  0  0
   -1.5917   -0.0287    4.0225 C   0  0  0  0  0  4           0  0  0
   -1.8546   -0.3675    7.8135 C   0  0  0  0  0  4           0  0  0
   -0.5416   -0.0000    1.3969 C   0  0  0  0  0  4           0  0  0
   -1.3335   -0.3532    6.5086 C   0  0  0  0  0  4           0  0  0
   -0.5222   -0.8642    3.6683 C   0  0  0  0  0  4           0  0  0
   -2.1293    0.8200    3.0435 C   0  0  0  0  0  4           0  0  0
   -3.4958    0.2481    5.6442 C   0  0  0  0  0  4           0  0  0
   -3.2012   -0.0667    8.0249 C   0  0  0  0  0  4           0  0  0
   -0.0050   -0.8520    2.3698 C   0  0  0  0  0  4           0  0  0
   -1.6116    0.8327    1.7455 C   0  0  0  0  0  4           0  0  0
   -4.0180    0.2383    6.9407 C   0  0  0  0  0  4           0  0  0
   -1.0228   -0.6813    8.9878 C   0  0  0  0  0  4           0  0  0
    1.7788    2.5157   -0.0058 C   0  0  0  0  0  4           0  0  0
    1.1753    4.2360   -1.5130 C   0  0  0  0  0  4           0  0  0
    0.0000   -0.0000    0.0000 C   0  0  0  0  0  4           0  0  0
    1.7860   -2.5226    0.0017 C   0  0  0  0  0  4           0  0  0
    2.5369   -3.4026   -0.9951 C   0  0  0  0  0  4           0  0  0
    2.0700   -4.8582   -1.0241 C   0  0  0  0  0  4           0  0  0
    2.8570   -5.6766   -2.0351 C   0  0  0  0  0  4           0  0  0
  1  7  1  0     0  0
  2 22  2  0     0  0
  3 23  1  0     0  0
  3 24  1  0     0  0
  4 22  1  0     0  0
  5  8  1  0     0  0
  5  9  1  0     0  0
  5 25  1  0     0  0
  6  7  1  0     0  0
  6  8  2  0     0  0
  7  9  2  0     0  0
  8 26  1  0     0  0
  9 23  1  0     0  0
 10 11  1  0     0  0
 10 14  2  0     0  0
 10 17  1  0     0  0
 11 15  2  0     0  0
 11 16  1  0     0  0
 12 14  1  0     0  0
 12 18  2  0     0  0
 12 22  1  0     0  0
 13 19  2  0     0  0
 13 20  1  0     0  0
 13 25  1  0     0  0
 15 19  1  0     0  0
 16 20  2  0     0  0
 17 21  2  0     0  0
 18 21  1  0     0  0
 26 27  1  0     0  0
 27 28  1  0     0  0
 28 29  1  0     0  0
M  END
> <standard_type>
pIC50

> <# Confs.>
25

> <canonical_smiles>
ClC(N=C1CCCC)=C(COC)N1CC2=CC=C(C3=CC(C(O)=O)=CC=C3)C=C2

> <standard_relation>
=

> <Publication_ID>
nan

> <predicted_activity_value>
5.958607314841775

> <actual_activity_value>
5.5376020021010435

> <Compound>
18

> <standard_units>
nM

> hash
11305038322849973726

$$$$
18_
XXILIB    08252103443D 0   0.00000     0.00000

 29 31  0     1  0            999 V2000
    5.0074   -1.4914   -0.0122 Cl  0  0  0  0  0  1           0  0  0
   -5.9175   -0.5852    8.3539 O   0  0  0  0  0  2           0  0  0
    1.6478   -2.9056   -1.3543 O   0  0  0  0  0  2           0  0  0
   -6.0841   -0.8857    6.1007 O   0  0  0  0  0  2           0  0  0
    1.4523    0.0000    0.0000 N   0  0  0  0  0  3           0  0  0
    3.5393    0.7630   -0.0025 N   0  0  0  0  0  3           0  0  0
    3.5500   -0.6068   -0.0019 C   0  0  0  0  0  4           0  0  0
    2.2690    1.1150    0.0000 C   0  0  0  0  0  4           0  0  0
    2.2653   -1.1171    0.0044 C   0  0  0  0  0  4           0  0  0
   -2.1394    0.0473    5.3930 C   0  0  0  0  0  4           0  0  0
   -1.5905    0.0300    4.0229 C   0  0  0  0  0  4           0  0  0
   -4.0152   -0.2533    6.9549 C   0  0  0  0  0  4           0  0  0
   -0.5416    0.0000    1.3969 C   0  0  0  0  0  4           0  0  0
   -3.4914   -0.2674    5.6510 C   0  0  0  0  0  4           0  0  0
   -2.1104   -0.8392    3.0525 C   0  0  0  0  0  4           0  0  0
   -0.5395    0.8852    3.6599 C   0  0  0  0  0  4           0  0  0
   -1.3362    0.3764    6.5023 C   0  0  0  0  0  4           0  0  0
   -3.1873    0.0732    8.0304 C   0  0  0  0  0  4           0  0  0
   -1.5938   -0.8520    1.7539 C   0  0  0  0  0  4           0  0  0
   -0.0225    0.8716    2.3616 C   0  0  0  0  0  4           0  0  0
   -1.8518    0.3886    7.8015 C   0  0  0  0  0  4           0  0  0
   -5.4217   -0.5847    7.2398 C   0  0  0  0  0  4           0  0  0
    1.7788   -2.5157    0.0058 C   0  0  0  0  0  4           0  0  0
    1.1835   -4.2419   -1.4980 C   0  0  0  0  0  4           0  0  0
   -0.0000    0.0000    0.0000 C   0  0  0  0  0  4           0  0  0
    1.7860    2.5226   -0.0017 C   0  0  0  0  0  4           0  0  0
    2.5369    3.4026    0.9951 C   0  0  0  0  0  4           0  0  0
    2.0700    4.8582    1.0241 C   0  0  0  0  0  4           0  0  0
    2.8570    5.6766    2.0351 C   0  0  0  0  0  4           0  0  0
  1  7  1  0     0  0
  2 22  2  0     0  0
  3 23  1  0     0  0
  3 24  1  0     0  0
  4 22  1  0     0  0
  5  8  1  0     0  0
  5  9  1  0     0  0
  5 25  1  0     0  0
  6  7  1  0     0  0
  6  8  2  0     0  0
  7  9  2  0     0  0
  8 26  1  0     0  0
  9 23  1  0     0  0
 10 11  1  0     0  0
 10 14  2  0     0  0
 10 17  1  0     0  0
 11 15  2  0     0  0
 11 16  1  0     0  0
 12 14  1  0     0  0
 12 18  2  0     0  0
 12 22  1  0     0  0
 13 19  2  0     0  0
 13 20  1  0     0  0
 13 25  1  0     0  0
 15 19  1  0     0  0
 16 20  2  0     0  0
 17 21  2  0     0  0
 18 21  1  0     0  0
 26 27  1  0     0  0
 27 28  1  0     0  0
 28 29  1  0     0  0
M  END
> <standard_type>
pIC50

> <# Confs.>
25

> <canonical_smiles>
ClC(N=C1CCCC)=C(COC)N1CC2=CC=C(C3=CC(C(O)=O)=CC=C3)C=C2

> <standard_relation>
=

> <Publication_ID>
nan

> <predicted_activity_value>
5.958607314841775

> <actual_activity_value>
5.5376020021010435

> <Compound>
18

> <standard_units>
nM

> hash
11305038322849973726

$$$$
14_
XXILIB    08252103443D 0   0.00000     0.00000

 34 37  0     1  0            999 V2000
    5.0102   -1.4826    0.0264 Cl  0  0  0  0  0  1           0  0  0
   -3.0019   -2.7432    4.5421 O   0  0  0  0  0  2           0  0  0
    1.6666   -2.9053   -1.3552 O   0  0  0  0  0  2           0  0  0
   -1.5188   -6.4085    4.3374 N   0  0  0  0  0  3           0  0  0
   -0.6189   -6.6582    5.2792 N   0  0  0  0  0  3           0  0  0
   -1.9075   -5.1448    4.5537 N   0  0  0  0  0  3           0  0  0
   -0.4353   -5.5632    6.0913 N   0  0  0  0  0  3           0  0  0
    1.4520    0.0000   -0.0000 N   0  0  0  0  0  3           0  0  0
    3.5373    0.7678    0.0096 N   0  0  0  0  0  3           0  0  0
   -1.4132   -3.3526    6.1159 N   0  0  0  0  0  3           0  0  0
    3.5506   -0.6018    0.0167 C   0  0  0  0  0  4           0  0  0
   -1.2415   -4.6291    5.6307 C   0  0  0  0  0  4           0  0  0
    2.2665    1.1166    0.0000 C   0  0  0  0  0  4           0  0  0
    2.2672   -1.1152    0.0106 C   0  0  0  0  0  4           0  0  0
   -2.0979    0.0335    5.4017 C   0  0  0  0  0  4           0  0  0
   -1.5651    0.0259    4.0330 C   0  0  0  0  0  4           0  0  0
   -2.3956   -1.1384    6.1342 C   0  0  0  0  0  4           0  0  0
   -0.5416    0.0000    1.3968 C   0  0  0  0  0  4           0  0  0
   -2.2973    1.2705    6.0495 C   0  0  0  0  0  4           0  0  0
   -0.1819    0.0102    3.8003 C   0  0  0  0  0  4           0  0  0
   -2.4285    0.0357    2.9278 C   0  0  0  0  0  4           0  0  0
   -2.8602   -1.0612    7.4580 C   0  0  0  0  0  4           0  0  0
    0.3238    0.0000    2.4972 C   0  0  0  0  0  4           0  0  0
   -1.9226    0.0250    1.6250 C   0  0  0  0  0  4           0  0  0
   -2.7608    1.3422    7.3654 C   0  0  0  0  0  4           0  0  0
   -3.0380    0.1769    8.0697 C   0  0  0  0  0  4           0  0  0
   -2.3023   -2.4857    5.5197 C   0  0  0  0  0  4           0  0  0
    1.7852   -2.5151    0.0073 C   0  0  0  0  0  4           0  0  0
    1.2069   -4.2448   -1.4769 C   0  0  0  0  0  4           0  0  0
    0.0000    0.0000   -0.0000 C   0  0  0  0  0  4           0  0  0
    1.7796    2.5209   -0.0147 C   0  0  0  0  0  4           0  0  0
    1.6035    3.0584   -1.4313 C   0  0  0  0  0  4           0  0  0
    1.1033    4.5021   -1.4979 C   0  0  0  0  0  4           0  0  0
    0.9494    4.9759   -2.9343 C   0  0  0  0  0  4           0  0  0
  1 11  1  0     0  0
  2 27  2  0     0  0
  3 28  1  0     0  0
  3 29  1  0     0  0
  4  5  2  0     0  0
  4  6  1  0     0  0
  5  7  1  0     0  0
  6 12  1  0     0  0
  7 12  2  0     0  0
  8 13  1  0     0  0
  8 14  1  0     0  0
  8 30  1  0     0  0
  9 11  1  0     0  0
  9 13  2  0     0  0
 10 12  1  0     0  0
 10 27  1  0     0  0
 11 14  2  0     0  0
 13 31  1  0     0  0
 14 28  1  0     0  0
 15 16  1  0     0  0
 15 17  1  0     0  0
 15 19  2  0     0  0
 16 20  2  0     0  0
 16 21  1  0     0  0
 17 22  2  0     0  0
 17 27  1  0     0  0
 18 23  2  0     0  0
 18 24  1  0     0  0
 18 30  1  0     0  0
 19 25  1  0     0  0
 20 23  1  0     0  0
 21 24  2  0     0  0
 22 26  1  0     0  0
 25 26  2  0     0  0
 31 32  1  0     0  0
 32 33  1  0     0  0
 33 34  1  0     0  0
M  END
> <standard_type>
pIC50

> <# Confs.>
25

> <canonical_smiles>
ClC(N=C1CCCC)=C(COC)N1CC2=CC=C(C3=CC=CC=C3C(NC4=NN=NN4)=O)C=C2

> <standard_relation>
=

> <Publication_ID>
nan

> <predicted_activity_value>
6.040958607678906

> <actual_activity_value>
6.154901959985743

> <Compound>
14

> <standard_units>
nM

> hash
15081376124894451268

$$$$
14_
XXILIB    08252103443D 0   0.00000     0.00000

 34 37  0     1  0            999 V2000
    5.0102   -1.4826    0.0264 Cl  0  0  0  0  0  1           0  0  0
   -3.0019   -2.7432    4.5421 O   0  0  0  0  0  2           0  0  0
    1.6666   -2.9053   -1.3552 O   0  0  0  0  0  2           0  0  0
   -1.5188   -6.4085    4.3374 N   0  0  0  0  0  3           0  0  0
   -0.6189   -6.6582    5.2792 N   0  0  0  0  0  3           0  0  0
   -1.9075   -5.1448    4.5537 N   0  0  0  0  0  3           0  0  0
   -0.4353   -5.5632    6.0913 N   0  0  0  0  0  3           0  0  0
    1.4520    0.0000   -0.0000 N   0  0  0  0  0  3           0  0  0
    3.5373    0.7678    0.0096 N   0  0  0  0  0  3           0  0  0
   -1.4132   -3.3526    6.1159 N   0  0  0  0  0  3           0  0  0
    3.5506   -0.6018    0.0167 C   0  0  0  0  0  4           0  0  0
   -1.2415   -4.6291    5.6307 C   0  0  0  0  0  4           0  0  0
    2.2665    1.1166    0.0000 C   0  0  0  0  0  4           0  0  0
    2.2672   -1.1152    0.0106 C   0  0  0  0  0  4           0  0  0
   -2.0979    0.0335    5.4017 C   0  0  0  0  0  4           0  0  0
   -1.5651    0.0259    4.0330 C   0  0  0  0  0  4           0  0  0
   -2.3956   -1.1384    6.1342 C   0  0  0  0  0  4           0  0  0
   -0.5416    0.0000    1.3968 C   0  0  0  0  0  4           0  0  0
   -2.2973    1.2705    6.0495 C   0  0  0  0  0  4           0  0  0
   -0.1819    0.0102    3.8003 C   0  0  0  0  0  4           0  0  0
   -2.4285    0.0357    2.9278 C   0  0  0  0  0  4           0  0  0
   -2.8602   -1.0612    7.4580 C   0  0  0  0  0  4           0  0  0
    0.3238    0.0000    2.4972 C   0  0  0  0  0  4           0  0  0
   -1.9226    0.0250    1.6250 C   0  0  0  0  0  4           0  0  0
   -2.7608    1.3422    7.3654 C   0  0  0  0  0  4           0  0  0
   -3.0380    0.1769    8.0697 C   0  0  0  0  0  4           0  0  0
   -2.3023   -2.4857    5.5197 C   0  0  0  0  0  4           0  0  0
    1.7852   -2.5151    0.0073 C   0  0  0  0  0  4           0  0  0
    1.2069   -4.2448   -1.4769 C   0  0  0  0  0  4           0  0  0
    0.0000    0.0000   -0.0000 C   0  0  0  0  0  4           0  0  0
    1.7796    2.5209   -0.0147 C   0  0  0  0  0  4           0  0  0
    1.6035    3.0584   -1.4313 C   0  0  0  0  0  4           0  0  0
    2.8855    3.0642   -2.2649 C   0  0  0  0  0  4           0  0  0
    2.6423    3.6102   -3.6629 C   0  0  0  0  0  4           0  0  0
  1 11  1  0     0  0
  2 27  2  0     0  0
  3 28  1  0     0  0
  3 29  1  0     0  0
  4  5  2  0     0  0
  4  6  1  0     0  0
  5  7  1  0     0  0
  6 12  1  0     0  0
  7 12  2  0     0  0
  8 13  1  0     0  0
  8 14  1  0     0  0
  8 30  1  0     0  0
  9 11  1  0     0  0
  9 13  2  0     0  0
 10 12  1  0     0  0
 10 27  1  0     0  0
 11 14  2  0     0  0
 13 31  1  0     0  0
 14 28  1  0     0  0
 15 16  1  0     0  0
 15 17  1  0     0  0
 15 19  2  0     0  0
 16 20  2  0     0  0
 16 21  1  0     0  0
 17 22  2  0     0  0
 17 27  1  0     0  0
 18 23  2  0     0  0
 18 24  1  0     0  0
 18 30  1  0     0  0
 19 25  1  0     0  0
 20 23  1  0     0  0
 21 24  2  0     0  0
 22 26  1  0     0  0
 25 26  2  0     0  0
 31 32  1  0     0  0
 32 33  1  0     0  0
 33 34  1  0     0  0
M  END
> <standard_type>
pIC50

> <# Confs.>
25

> <canonical_smiles>
ClC(N=C1CCCC)=C(COC)N1CC2=CC=C(C3=CC=CC=C3C(NC4=NN=NN4)=O)C=C2

> <standard_relation>
=

> <Publication_ID>
nan

> <predicted_activity_value>
6.040958607678906

> <actual_activity_value>
6.154901959985743

> <Compound>
14

> <standard_units>
nM

> hash
15081376124894451268

$$$$
14_
XXILIB    08252103443D 0   0.00000     0.00000

 34 37  0     1  0            999 V2000
    5.0102   -1.4826    0.0264 Cl  0  0  0  0  0  1           0  0  0
   -3.0019   -2.7432    4.5421 O   0  0  0  0  0  2           0  0  0
    1.6366   -2.9013    1.3680 O   0  0  0  0  0  2           0  0  0
   -1.5188   -6.4085    4.3374 N   0  0  0  0  0  3           0  0  0
   -0.6189   -6.6582    5.2792 N   0  0  0  0  0  3           0  0  0
   -1.9075   -5.1448    4.5537 N   0  0  0  0  0  3           0  0  0
   -0.4353   -5.5632    6.0913 N   0  0  0  0  0  3           0  0  0
    1.4520    0.0000    0.0000 N   0  0  0  0  0  3           0  0  0
    3.5373    0.7678    0.0096 N   0  0  0  0  0  3           0  0  0
   -1.4132   -3.3526    6.1159 N   0  0  0  0  0  3           0  0  0
    3.5506   -0.6018    0.0167 C   0  0  0  0  0  4           0  0  0
   -1.2415   -4.6291    5.6307 C   0  0  0  0  0  4           0  0  0
    2.2665    1.1166    0.0000 C   0  0  0  0  0  4           0  0  0
    2.2672   -1.1152    0.0106 C   0  0  0  0  0  4           0  0  0
   -2.0979    0.0335    5.4017 C   0  0  0  0  0  4           0  0  0
   -1.5651    0.0259    4.0330 C   0  0  0  0  0  4           0  0  0
   -2.3956   -1.1384    6.1342 C   0  0  0  0  0  4           0  0  0
   -0.5416    0.0000    1.3968 C   0  0  0  0  0  4           0  0  0
   -2.2973    1.2705    6.0495 C   0  0  0  0  0  4           0  0  0
   -0.1819    0.0102    3.8003 C   0  0  0  0  0  4           0  0  0
   -2.4285    0.0357    2.9278 C   0  0  0  0  0  4           0  0  0
   -2.8602   -1.0612    7.4580 C   0  0  0  0  0  4           0  0  0
    0.3238    0.0000    2.4972 C   0  0  0  0  0  4           0  0  0
   -1.9226    0.0250    1.6250 C   0  0  0  0  0  4           0  0  0
   -2.7608    1.3422    7.3654 C   0  0  0  0  0  4           0  0  0
   -3.0380    0.1769    8.0697 C   0  0  0  0  0  4           0  0  0
   -2.3023   -2.4857    5.5197 C   0  0  0  0  0  4           0  0  0
    1.7852   -2.5151    0.0073 C   0  0  0  0  0  4           0  0  0
    1.1742   -4.2406    1.4834 C   0  0  0  0  0  4           0  0  0
    0.0000    0.0000   -0.0000 C   0  0  0  0  0  4           0  0  0
    1.7796    2.5209   -0.0147 C   0  0  0  0  0  4           0  0  0
    1.6035    3.0584   -1.4313 C   0  0  0  0  0  4           0  0  0
    1.1033    4.5021   -1.4979 C   0  0  0  0  0  4           0  0  0
    0.9494    4.9759   -2.9343 C   0  0  0  0  0  4           0  0  0
  1 11  1  0     0  0
  2 27  2  0     0  0
  3 28  1  0     0  0
  3 29  1  0     0  0
  4  5  2  0     0  0
  4  6  1  0     0  0
  5  7  1  0     0  0
  6 12  1  0     0  0
  7 12  2  0     0  0
  8 13  1  0     0  0
  8 14  1  0     0  0
  8 30  1  0     0  0
  9 11  1  0     0  0
  9 13  2  0     0  0
 10 12  1  0     0  0
 10 27  1  0     0  0
 11 14  2  0     0  0
 13 31  1  0     0  0
 14 28  1  0     0  0
 15 16  1  0     0  0
 15 17  1  0     0  0
 15 19  2  0     0  0
 16 20  2  0     0  0
 16 21  1  0     0  0
 17 22  2  0     0  0
 17 27  1  0     0  0
 18 23  2  0     0  0
 18 24  1  0     0  0
 18 30  1  0     0  0
 19 25  1  0     0  0
 20 23  1  0     0  0
 21 24  2  0     0  0
 22 26  1  0     0  0
 25 26  2  0     0  0
 31 32  1  0     0  0
 32 33  1  0     0  0
 33 34  1  0     0  0
M  END
> <standard_type>
pIC50

> <# Confs.>
25

> <canonical_smiles>
ClC(N=C1CCCC)=C(COC)N1CC2=CC=C(C3=CC=CC=C3C(NC4=NN=NN4)=O)C=C2

> <standard_relation>
=

> <Publication_ID>
nan

> <predicted_activity_value>
6.040958607678906

> <actual_activity_value>
6.154901959985743

> <Compound>
14

> <standard_units>
nM

> hash
15081376124894451268

$$$$
14_
XXILIB    08252103443D 0   0.00000     0.00000

 34 37  0     1  0            999 V2000
    5.0102    1.4826   -0.0264 Cl  0  0  0  0  0  1           0  0  0
   -3.0019   -2.7432    4.5421 O   0  0  0  0  0  2           0  0  0
    1.6366    2.9013   -1.3680 O   0  0  0  0  0  2           0  0  0
   -1.5188   -6.4085    4.3374 N   0  0  0  0  0  3           0  0  0
   -0.6189   -6.6582    5.2792 N   0  0  0  0  0  3           0  0  0
   -1.9075   -5.1448    4.5537 N   0  0  0  0  0  3           0  0  0
   -0.4353   -5.5632    6.0913 N   0  0  0  0  0  3           0  0  0
    1.4520    0.0000    0.0000 N   0  0  0  0  0  3           0  0  0
    3.5373   -0.7678   -0.0096 N   0  0  0  0  0  3           0  0  0
   -1.4132   -3.3526    6.1159 N   0  0  0  0  0  3           0  0  0
    3.5506    0.6018   -0.0167 C   0  0  0  0  0  4           0  0  0
   -1.2415   -4.6291    5.6307 C   0  0  0  0  0  4           0  0  0
    2.2665   -1.1166    0.0000 C   0  0  0  0  0  4           0  0  0
    2.2672    1.1152   -0.0106 C   0  0  0  0  0  4           0  0  0
   -2.0979    0.0335    5.4017 C   0  0  0  0  0  4           0  0  0
   -1.5651    0.0259    4.0330 C   0  0  0  0  0  4           0  0  0
   -2.3956   -1.1384    6.1342 C   0  0  0  0  0  4           0  0  0
   -0.5416    0.0000    1.3968 C   0  0  0  0  0  4           0  0  0
   -2.2973    1.2705    6.0495 C   0  0  0  0  0  4           0  0  0
   -0.1819    0.0102    3.8003 C   0  0  0  0  0  4           0  0  0
   -2.4285    0.0357    2.9278 C   0  0  0  0  0  4           0  0  0
   -2.8602   -1.0612    7.4580 C   0  0  0  0  0  4           0  0  0
    0.3238    0.0000    2.4972 C   0  0  0  0  0  4           0  0  0
   -1.9226    0.0250    1.6250 C   0  0  0  0  0  4           0  0  0
   -2.7608    1.3422    7.3654 C   0  0  0  0  0  4           0  0  0
   -3.0380    0.1769    8.0697 C   0  0  0  0  0  4           0  0  0
   -2.3023   -2.4857    5.5197 C   0  0  0  0  0  4           0  0  0
    1.7852    2.5151   -0.0073 C   0  0  0  0  0  4           0  0  0
    1.1742    4.2406   -1.4834 C   0  0  0  0  0  4           0  0  0
    0.0000    0.0000   -0.0000 C   0  0  0  0  0  4           0  0  0
    1.7796   -2.5209    0.0147 C   0  0  0  0  0  4           0  0  0
    1.5761   -3.0784   -1.3905 C   0  0  0  0  0  4           0  0  0
    1.0750   -4.5228   -1.4269 C   0  0  0  0  0  4           0  0  0
    0.8933   -5.0169   -2.8533 C   0  0  0  0  0  4           0  0  0
  1 11  1  0     0  0
  2 27  2  0     0  0
  3 28  1  0     0  0
  3 29  1  0     0  0
  4  5  2  0     0  0
  4  6  1  0     0  0
  5  7  1  0     0  0
  6 12  1  0     0  0
  7 12  2  0     0  0
  8 13  1  0     0  0
  8 14  1  0     0  0
  8 30  1  0     0  0
  9 11  1  0     0  0
  9 13  2  0     0  0
 10 12  1  0     0  0
 10 27  1  0     0  0
 11 14  2  0     0  0
 13 31  1  0     0  0
 14 28  1  0     0  0
 15 16  1  0     0  0
 15 17  1  0     0  0
 15 19  2  0     0  0
 16 20  2  0     0  0
 16 21  1  0     0  0
 17 22  2  0     0  0
 17 27  1  0     0  0
 18 23  2  0     0  0
 18 24  1  0     0  0
 18 30  1  0     0  0
 19 25  1  0     0  0
 20 23  1  0     0  0
 21 24  2  0     0  0
 22 26  1  0     0  0
 25 26  2  0     0  0
 31 32  1  0     0  0
 32 33  1  0     0  0
 33 34  1  0     0  0
M  END
> <standard_type>
pIC50

> <# Confs.>
25

> <canonical_smiles>
ClC(N=C1CCCC)=C(COC)N1CC2=CC=C(C3=CC=CC=C3C(NC4=NN=NN4)=O)C=C2

> <standard_relation>
=

> <Publication_ID>
nan

> <predicted_activity_value>
6.040958607678906

> <actual_activity_value>
6.154901959985743

> <Compound>
14

> <standard_units>
nM

> hash
15081376124894451268

$$$$
14_
XXILIB    08252103443D 0   0.00000     0.00000

 34 37  0     1  0            999 V2000
    5.0102    1.4826   -0.0264 Cl  0  0  0  0  0  1           0  0  0
   -3.0019   -2.7432    4.5421 O   0  0  0  0  0  2           0  0  0
    1.6366    2.9013   -1.3680 O   0  0  0  0  0  2           0  0  0
   -1.5188   -6.4085    4.3374 N   0  0  0  0  0  3           0  0  0
   -0.6189   -6.6582    5.2792 N   0  0  0  0  0  3           0  0  0
   -1.9075   -5.1448    4.5537 N   0  0  0  0  0  3           0  0  0
   -0.4353   -5.5632    6.0913 N   0  0  0  0  0  3           0  0  0
    1.4520    0.0000    0.0000 N   0  0  0  0  0  3           0  0  0
    3.5373   -0.7678   -0.0096 N   0  0  0  0  0  3           0  0  0
   -1.4132   -3.3526    6.1159 N   0  0  0  0  0  3           0  0  0
    3.5506    0.6018   -0.0167 C   0  0  0  0  0  4           0  0  0
   -1.2415   -4.6291    5.6307 C   0  0  0  0  0  4           0  0  0
    2.2665   -1.1166    0.0000 C   0  0  0  0  0  4           0  0  0
    2.2672    1.1152   -0.0106 C   0  0  0  0  0  4           0  0  0
   -2.0979    0.0335    5.4017 C   0  0  0  0  0  4           0  0  0
   -1.5651    0.0259    4.0330 C   0  0  0  0  0  4           0  0  0
   -2.3956   -1.1384    6.1342 C   0  0  0  0  0  4           0  0  0
   -0.5416    0.0000    1.3968 C   0  0  0  0  0  4           0  0  0
   -2.2973    1.2705    6.0495 C   0  0  0  0  0  4           0  0  0
   -0.1819    0.0102    3.8003 C   0  0  0  0  0  4           0  0  0
   -2.4285    0.0357    2.9278 C   0  0  0  0  0  4           0  0  0
   -2.8602   -1.0612    7.4580 C   0  0  0  0  0  4           0  0  0
    0.3238    0.0000    2.4972 C   0  0  0  0  0  4           0  0  0
   -1.9226    0.0250    1.6250 C   0  0  0  0  0  4           0  0  0
   -2.7608    1.3422    7.3654 C   0  0  0  0  0  4           0  0  0
   -3.0380    0.1769    8.0697 C   0  0  0  0  0  4           0  0  0
   -2.3023   -2.4857    5.5197 C   0  0  0  0  0  4           0  0  0
    1.7852    2.5151   -0.0073 C   0  0  0  0  0  4           0  0  0
    1.1742    4.2406   -1.4834 C   0  0  0  0  0  4           0  0  0
    0.0000    0.0000   -0.0000 C   0  0  0  0  0  4           0  0  0
    1.7796   -2.5209    0.0147 C   0  0  0  0  0  4           0  0  0
    2.5421   -3.3882    1.0112 C   0  0  0  0  0  4           0  0  0
    2.4478   -2.9104    2.4609 C   0  0  0  0  0  4           0  0  0
    3.2275   -3.8158    3.4010 C   0  0  0  0  0  4           0  0  0
  1 11  1  0     0  0
  2 27  2  0     0  0
  3 28  1  0     0  0
  3 29  1  0     0  0
  4  5  2  0     0  0
  4  6  1  0     0  0
  5  7  1  0     0  0
  6 12  1  0     0  0
  7 12  2  0     0  0
  8 13  1  0     0  0
  8 14  1  0     0  0
  8 30  1  0     0  0
  9 11  1  0     0  0
  9 13  2  0     0  0
 10 12  1  0     0  0
 10 27  1  0     0  0
 11 14  2  0     0  0
 13 31  1  0     0  0
 14 28  1  0     0  0
 15 16  1  0     0  0
 15 17  1  0     0  0
 15 19  2  0     0  0
 16 20  2  0     0  0
 16 21  1  0     0  0
 17 22  2  0     0  0
 17 27  1  0     0  0
 18 23  2  0     0  0
 18 24  1  0     0  0
 18 30  1  0     0  0
 19 25  1  0     0  0
 20 23  1  0     0  0
 21 24  2  0     0  0
 22 26  1  0     0  0
 25 26  2  0     0  0
 31 32  1  0     0  0
 32 33  1  0     0  0
 33 34  1  0     0  0
M  END
> <standard_type>
pIC50

> <# Confs.>
25

> <canonical_smiles>
ClC(N=C1CCCC)=C(COC)N1CC2=CC=C(C3=CC=CC=C3C(NC4=NN=NN4)=O)C=C2

> <standard_relation>
=

> <Publication_ID>
nan

> <predicted_activity_value>
6.040958607678906

> <actual_activity_value>
6.154901959985743

> <Compound>
14

> <standard_units>
nM

> hash
15081376124894451268

$$$$
14_
XXILIB    08252103443D 0   0.00000     0.00000

 34 37  0     1  0            999 V2000
    5.0102   -1.4826    0.0264 Cl  0  0  0  0  0  1           0  0  0
   -3.0019   -2.7432    4.5421 O   0  0  0  0  0  2           0  0  0
    1.6366   -2.9013    1.3680 O   0  0  0  0  0  2           0  0  0
   -1.5188   -6.4085    4.3374 N   0  0  0  0  0  3           0  0  0
   -0.6189   -6.6582    5.2792 N   0  0  0  0  0  3           0  0  0
   -1.9075   -5.1448    4.5537 N   0  0  0  0  0  3           0  0  0
   -0.4353   -5.5632    6.0913 N   0  0  0  0  0  3           0  0  0
    1.4520    0.0000    0.0000 N   0  0  0  0  0  3           0  0  0
    3.5373    0.7678    0.0096 N   0  0  0  0  0  3           0  0  0
   -1.4132   -3.3526    6.1159 N   0  0  0  0  0  3           0  0  0
    3.5506   -0.6018    0.0167 C   0  0  0  0  0  4           0  0  0
   -1.2415   -4.6291    5.6307 C   0  0  0  0  0  4           0  0  0
    2.2665    1.1166    0.0000 C   0  0  0  0  0  4           0  0  0
    2.2672   -1.1152    0.0106 C   0  0  0  0  0  4           0  0  0
   -2.0979    0.0335    5.4017 C   0  0  0  0  0  4           0  0  0
   -1.5651    0.0259    4.0330 C   0  0  0  0  0  4           0  0  0
   -2.3956   -1.1384    6.1342 C   0  0  0  0  0  4           0  0  0
   -0.5416    0.0000    1.3968 C   0  0  0  0  0  4           0  0  0
   -2.2973    1.2705    6.0495 C   0  0  0  0  0  4           0  0  0
   -0.1819    0.0102    3.8003 C   0  0  0  0  0  4           0  0  0
   -2.4285    0.0357    2.9278 C   0  0  0  0  0  4           0  0  0
   -2.8602   -1.0612    7.4580 C   0  0  0  0  0  4           0  0  0
    0.3238    0.0000    2.4972 C   0  0  0  0  0  4           0  0  0
   -1.9226    0.0250    1.6250 C   0  0  0  0  0  4           0  0  0
   -2.7608    1.3422    7.3654 C   0  0  0  0  0  4           0  0  0
   -3.0380    0.1769    8.0697 C   0  0  0  0  0  4           0  0  0
   -2.3023   -2.4857    5.5197 C   0  0  0  0  0  4           0  0  0
    1.7852   -2.5151    0.0073 C   0  0  0  0  0  4           0  0  0
    1.1742   -4.2406    1.4834 C   0  0  0  0  0  4           0  0  0
    0.0000    0.0000   -0.0000 C   0  0  0  0  0  4           0  0  0
    1.7796    2.5209   -0.0147 C   0  0  0  0  0  4           0  0  0
    1.6035    3.0584   -1.4313 C   0  0  0  0  0  4           0  0  0
    2.8855    3.0642   -2.2649 C   0  0  0  0  0  4           0  0  0
    2.6423    3.6102   -3.6629 C   0  0  0  0  0  4           0  0  0
  1 11  1  0     0  0
  2 27  2  0     0  0
  3 28  1  0     0  0
  3 29  1  0     0  0
  4  5  2  0     0  0
  4  6  1  0     0  0
  5  7  1  0     0  0
  6 12  1  0     0  0
  7 12  2  0     0  0
  8 13  1  0     0  0
  8 14  1  0     0  0
  8 30  1  0     0  0
  9 11  1  0     0  0
  9 13  2  0     0  0
 10 12  1  0     0  0
 10 27  1  0     0  0
 11 14  2  0     0  0
 13 31  1  0     0  0
 14 28  1  0     0  0
 15 16  1  0     0  0
 15 17  1  0     0  0
 15 19  2  0     0  0
 16 20  2  0     0  0
 16 21  1  0     0  0
 17 22  2  0     0  0
 17 27  1  0     0  0
 18 23  2  0     0  0
 18 24  1  0     0  0
 18 30  1  0     0  0
 19 25  1  0     0  0
 20 23  1  0     0  0
 21 24  2  0     0  0
 22 26  1  0     0  0
 25 26  2  0     0  0
 31 32  1  0     0  0
 32 33  1  0     0  0
 33 34  1  0     0  0
M  END
> <standard_type>
pIC50

> <# Confs.>
25

> <canonical_smiles>
ClC(N=C1CCCC)=C(COC)N1CC2=CC=C(C3=CC=CC=C3C(NC4=NN=NN4)=O)C=C2

> <standard_relation>
=

> <Publication_ID>
nan

> <predicted_activity_value>
6.040958607678906

> <actual_activity_value>
6.154901959985743

> <Compound>
14

> <standard_units>
nM

> hash
15081376124894451268

$$$$
14_
XXILIB    08252103443D 0   0.00000     0.00000

 34 37  0     1  0            999 V2000
    5.0102   -1.4826    0.0264 Cl  0  0  0  0  0  1           0  0  0
   -1.5656   -2.9487    5.1023 O   0  0  0  0  0  2           0  0  0
    1.6666   -2.9053   -1.3552 O   0  0  0  0  0  2           0  0  0
    1.4625   -5.4695    5.4926 N   0  0  0  0  0  3           0  0  0
    2.3339   -5.0953    6.4198 N   0  0  0  0  0  3           0  0  0
    0.5207   -4.5167    5.4953 N   0  0  0  0  0  3           0  0  0
    1.9510   -3.9136    7.0109 N   0  0  0  0  0  3           0  0  0
    1.4520    0.0000   -0.0000 N   0  0  0  0  0  3           0  0  0
    3.5373    0.7678    0.0096 N   0  0  0  0  0  3           0  0  0
    0.0553   -2.4501    6.6825 N   0  0  0  0  0  3           0  0  0
    3.5506   -0.6018    0.0167 C   0  0  0  0  0  4           0  0  0
    0.8228   -3.5640    6.4283 C   0  0  0  0  0  4           0  0  0
    2.2665    1.1166    0.0000 C   0  0  0  0  0  4           0  0  0
    2.2672   -1.1152    0.0106 C   0  0  0  0  0  4           0  0  0
   -2.0979    0.0335    5.4017 C   0  0  0  0  0  4           0  0  0
   -1.5651    0.0259    4.0330 C   0  0  0  0  0  4           0  0  0
   -1.8459   -0.9867    6.3474 C   0  0  0  0  0  4           0  0  0
   -0.5416    0.0000    1.3968 C   0  0  0  0  0  4           0  0  0
   -2.8784    1.1298    5.8241 C   0  0  0  0  0  4           0  0  0
   -0.1819    0.0102    3.8003 C   0  0  0  0  0  4           0  0  0
   -2.4285    0.0357    2.9278 C   0  0  0  0  0  4           0  0  0
   -2.3489   -0.8953    7.6561 C   0  0  0  0  0  4           0  0  0
    0.3238   -0.0000    2.4972 C   0  0  0  0  0  4           0  0  0
   -1.9226    0.0250    1.6250 C   0  0  0  0  0  4           0  0  0
   -3.3776    1.2156    7.1260 C   0  0  0  0  0  4           0  0  0
   -3.1094    0.2055    8.0418 C   0  0  0  0  0  4           0  0  0
   -1.1091   -2.2219    5.9827 C   0  0  0  0  0  4           0  0  0
    1.7852   -2.5151    0.0073 C   0  0  0  0  0  4           0  0  0
    1.2069   -4.2448   -1.4769 C   0  0  0  0  0  4           0  0  0
    0.0000    0.0000   -0.0000 C   0  0  0  0  0  4           0  0  0
    1.7796    2.5209   -0.0147 C   0  0  0  0  0  4           0  0  0
    1.6035    3.0584   -1.4313 C   0  0  0  0  0  4           0  0  0
    1.1033    4.5021   -1.4979 C   0  0  0  0  0  4           0  0  0
    0.9494    4.9759   -2.9343 C   0  0  0  0  0  4           0  0  0
  1 11  1  0     0  0
  2 27  2  0     0  0
  3 28  1  0     0  0
  3 29  1  0     0  0
  4  5  2  0     0  0
  4  6  1  0     0  0
  5  7  1  0     0  0
  6 12  1  0     0  0
  7 12  2  0     0  0
  8 13  1  0     0  0
  8 14  1  0     0  0
  8 30  1  0     0  0
  9 11  1  0     0  0
  9 13  2  0     0  0
 10 12  1  0     0  0
 10 27  1  0     0  0
 11 14  2  0     0  0
 13 31  1  0     0  0
 14 28  1  0     0  0
 15 16  1  0     0  0
 15 17  1  0     0  0
 15 19  2  0     0  0
 16 20  2  0     0  0
 16 21  1  0     0  0
 17 22  2  0     0  0
 17 27  1  0     0  0
 18 23  2  0     0  0
 18 24  1  0     0  0
 18 30  1  0     0  0
 19 25  1  0     0  0
 20 23  1  0     0  0
 21 24  2  0     0  0
 22 26  1  0     0  0
 25 26  2  0     0  0
 31 32  1  0     0  0
 32 33  1  0     0  0
 33 34  1  0     0  0
M  END
> <standard_type>
pIC50

> <# Confs.>
25

> <canonical_smiles>
ClC(N=C1CCCC)=C(COC)N1CC2=CC=C(C3=CC=CC=C3C(NC4=NN=NN4)=O)C=C2

> <standard_relation>
=

> <Publication_ID>
nan

> <predicted_activity_value>
6.040958607678906

> <actual_activity_value>
6.154901959985743

> <Compound>
14

> <standard_units>
nM

> hash
15081376124894451268

$$$$
14_
XXILIB    08252103443D 0   0.00000     0.00000

 34 37  0     1  0            999 V2000
    5.0102    1.4826   -0.0264 Cl  0  0  0  0  0  1           0  0  0
   -3.0019   -2.7432    4.5421 O   0  0  0  0  0  2           0  0  0
    1.6366    2.9013   -1.3680 O   0  0  0  0  0  2           0  0  0
   -1.5188   -6.4085    4.3374 N   0  0  0  0  0  3           0  0  0
   -0.6189   -6.6582    5.2792 N   0  0  0  0  0  3           0  0  0
   -1.9075   -5.1448    4.5537 N   0  0  0  0  0  3           0  0  0
   -0.4353   -5.5632    6.0913 N   0  0  0  0  0  3           0  0  0
    1.4520    0.0000    0.0000 N   0  0  0  0  0  3           0  0  0
    3.5373   -0.7678   -0.0096 N   0  0  0  0  0  3           0  0  0
   -1.4132   -3.3526    6.1159 N   0  0  0  0  0  3           0  0  0
    3.5506    0.6018   -0.0167 C   0  0  0  0  0  4           0  0  0
   -1.2415   -4.6291    5.6307 C   0  0  0  0  0  4           0  0  0
    2.2665   -1.1166    0.0000 C   0  0  0  0  0  4           0  0  0
    2.2672    1.1152   -0.0106 C   0  0  0  0  0  4           0  0  0
   -2.0979    0.0335    5.4017 C   0  0  0  0  0  4           0  0  0
   -1.5651    0.0259    4.0330 C   0  0  0  0  0  4           0  0  0
   -2.3956   -1.1384    6.1342 C   0  0  0  0  0  4           0  0  0
   -0.5416    0.0000    1.3968 C   0  0  0  0  0  4           0  0  0
   -2.2973    1.2705    6.0495 C   0  0  0  0  0  4           0  0  0
   -0.1819    0.0102    3.8003 C   0  0  0  0  0  4           0  0  0
   -2.4285    0.0357    2.9278 C   0  0  0  0  0  4           0  0  0
   -2.8602   -1.0612    7.4580 C   0  0  0  0  0  4           0  0  0
    0.3238    0.0000    2.4972 C   0  0  0  0  0  4           0  0  0
   -1.9226    0.0250    1.6250 C   0  0  0  0  0  4           0  0  0
   -2.7608    1.3422    7.3654 C   0  0  0  0  0  4           0  0  0
   -3.0380    0.1769    8.0697 C   0  0  0  0  0  4           0  0  0
   -2.3023   -2.4857    5.5197 C   0  0  0  0  0  4           0  0  0
    1.7852    2.5151   -0.0073 C   0  0  0  0  0  4           0  0  0
    1.1742    4.2406   -1.4834 C   0  0  0  0  0  4           0  0  0
    0.0000    0.0000   -0.0000 C   0  0  0  0  0  4           0  0  0
    1.7796   -2.5209    0.0147 C   0  0  0  0  0  4           0  0  0
    2.5421   -3.3882    1.0112 C   0  0  0  0  0  4           0  0  0
    2.0762   -4.8439    1.0625 C   0  0  0  0  0  4           0  0  0
    2.8746   -5.6524    2.0727 C   0  0  0  0  0  4           0  0  0
  1 11  1  0     0  0
  2 27  2  0     0  0
  3 28  1  0     0  0
  3 29  1  0     0  0
  4  5  2  0     0  0
  4  6  1  0     0  0
  5  7  1  0     0  0
  6 12  1  0     0  0
  7 12  2  0     0  0
  8 13  1  0     0  0
  8 14  1  0     0  0
  8 30  1  0     0  0
  9 11  1  0     0  0
  9 13  2  0     0  0
 10 12  1  0     0  0
 10 27  1  0     0  0
 11 14  2  0     0  0
 13 31  1  0     0  0
 14 28  1  0     0  0
 15 16  1  0     0  0
 15 17  1  0     0  0
 15 19  2  0     0  0
 16 20  2  0     0  0
 16 21  1  0     0  0
 17 22  2  0     0  0
 17 27  1  0     0  0
 18 23  2  0     0  0
 18 24  1  0     0  0
 18 30  1  0     0  0
 19 25  1  0     0  0
 20 23  1  0     0  0
 21 24  2  0     0  0
 22 26  1  0     0  0
 25 26  2  0     0  0
 31 32  1  0     0  0
 32 33  1  0     0  0
 33 34  1  0     0  0
M  END
> <standard_type>
pIC50

> <# Confs.>
25

> <canonical_smiles>
ClC(N=C1CCCC)=C(COC)N1CC2=CC=C(C3=CC=CC=C3C(NC4=NN=NN4)=O)C=C2

> <standard_relation>
=

> <Publication_ID>
nan

> <predicted_activity_value>
6.040958607678906

> <actual_activity_value>
6.154901959985743

> <Compound>
14

> <standard_units>
nM

> hash
15081376124894451268

$$$$
14_
XXILIB    08252103443D 0   0.00000     0.00000

 34 37  0     1  0            999 V2000
    5.0102   -1.4826    0.0264 Cl  0  0  0  0  0  1           0  0  0
   -1.5656   -2.9487    5.1023 O   0  0  0  0  0  2           0  0  0
    1.6666   -2.9053   -1.3552 O   0  0  0  0  0  2           0  0  0
    1.4625   -5.4695    5.4926 N   0  0  0  0  0  3           0  0  0
    2.3339   -5.0953    6.4198 N   0  0  0  0  0  3           0  0  0
    0.5207   -4.5167    5.4953 N   0  0  0  0  0  3           0  0  0
    1.9510   -3.9136    7.0109 N   0  0  0  0  0  3           0  0  0
    1.4520    0.0000   -0.0000 N   0  0  0  0  0  3           0  0  0
    3.5373    0.7678    0.0096 N   0  0  0  0  0  3           0  0  0
    0.0553   -2.4501    6.6825 N   0  0  0  0  0  3           0  0  0
    3.5506   -0.6018    0.0167 C   0  0  0  0  0  4           0  0  0
    0.8228   -3.5640    6.4283 C   0  0  0  0  0  4           0  0  0
    2.2665    1.1166    0.0000 C   0  0  0  0  0  4           0  0  0
    2.2672   -1.1152    0.0106 C   0  0  0  0  0  4           0  0  0
   -2.0979    0.0335    5.4017 C   0  0  0  0  0  4           0  0  0
   -1.5651    0.0259    4.0330 C   0  0  0  0  0  4           0  0  0
   -1.8459   -0.9867    6.3474 C   0  0  0  0  0  4           0  0  0
   -0.5416    0.0000    1.3968 C   0  0  0  0  0  4           0  0  0
   -2.8784    1.1298    5.8241 C   0  0  0  0  0  4           0  0  0
   -0.1819    0.0102    3.8003 C   0  0  0  0  0  4           0  0  0
   -2.4285    0.0357    2.9278 C   0  0  0  0  0  4           0  0  0
   -2.3489   -0.8953    7.6561 C   0  0  0  0  0  4           0  0  0
    0.3238   -0.0000    2.4972 C   0  0  0  0  0  4           0  0  0
   -1.9226    0.0250    1.6250 C   0  0  0  0  0  4           0  0  0
   -3.3776    1.2156    7.1260 C   0  0  0  0  0  4           0  0  0
   -3.1094    0.2055    8.0418 C   0  0  0  0  0  4           0  0  0
   -1.1091   -2.2219    5.9827 C   0  0  0  0  0  4           0  0  0
    1.7852   -2.5151    0.0073 C   0  0  0  0  0  4           0  0  0
    1.2069   -4.2448   -1.4769 C   0  0  0  0  0  4           0  0  0
    0.0000    0.0000   -0.0000 C   0  0  0  0  0  4           0  0  0
    1.7796    2.5209   -0.0147 C   0  0  0  0  0  4           0  0  0
    1.6035    3.0584   -1.4313 C   0  0  0  0  0  4           0  0  0
    2.8855    3.0642   -2.2649 C   0  0  0  0  0  4           0  0  0
    2.6423    3.6102   -3.6629 C   0  0  0  0  0  4           0  0  0
  1 11  1  0     0  0
  2 27  2  0     0  0
  3 28  1  0     0  0
  3 29  1  0     0  0
  4  5  2  0     0  0
  4  6  1  0     0  0
  5  7  1  0     0  0
  6 12  1  0     0  0
  7 12  2  0     0  0
  8 13  1  0     0  0
  8 14  1  0     0  0
  8 30  1  0     0  0
  9 11  1  0     0  0
  9 13  2  0     0  0
 10 12  1  0     0  0
 10 27  1  0     0  0
 11 14  2  0     0  0
 13 31  1  0     0  0
 14 28  1  0     0  0
 15 16  1  0     0  0
 15 17  1  0     0  0
 15 19  2  0     0  0
 16 20  2  0     0  0
 16 21  1  0     0  0
 17 22  2  0     0  0
 17 27  1  0     0  0
 18 23  2  0     0  0
 18 24  1  0     0  0
 18 30  1  0     0  0
 19 25  1  0     0  0
 20 23  1  0     0  0
 21 24  2  0     0  0
 22 26  1  0     0  0
 25 26  2  0     0  0
 31 32  1  0     0  0
 32 33  1  0     0  0
 33 34  1  0     0  0
M  END
> <standard_type>
pIC50

> <# Confs.>
25

> <canonical_smiles>
ClC(N=C1CCCC)=C(COC)N1CC2=CC=C(C3=CC=CC=C3C(NC4=NN=NN4)=O)C=C2

> <standard_relation>
=

> <Publication_ID>
nan

> <predicted_activity_value>
6.040958607678906

> <actual_activity_value>
6.154901959985743

> <Compound>
14

> <standard_units>
nM

> hash
15081376124894451268

$$$$
14_
XXILIB    08252103443D 0   0.00000     0.00000

 34 37  0     1  0            999 V2000
    5.0102    1.4826   -0.0264 Cl  0  0  0  0  0  1           0  0  0
   -3.0019   -2.7432    4.5421 O   0  0  0  0  0  2           0  0  0
    1.6366    2.9013   -1.3680 O   0  0  0  0  0  2           0  0  0
   -1.5188   -6.4085    4.3374 N   0  0  0  0  0  3           0  0  0
   -0.6189   -6.6582    5.2792 N   0  0  0  0  0  3           0  0  0
   -1.9075   -5.1448    4.5537 N   0  0  0  0  0  3           0  0  0
   -0.4353   -5.5632    6.0913 N   0  0  0  0  0  3           0  0  0
    1.4520    0.0000    0.0000 N   0  0  0  0  0  3           0  0  0
    3.5373   -0.7678   -0.0096 N   0  0  0  0  0  3           0  0  0
   -1.4132   -3.3526    6.1159 N   0  0  0  0  0  3           0  0  0
    3.5506    0.6018   -0.0167 C   0  0  0  0  0  4           0  0  0
   -1.2415   -4.6291    5.6307 C   0  0  0  0  0  4           0  0  0
    2.2665   -1.1166    0.0000 C   0  0  0  0  0  4           0  0  0
    2.2672    1.1152   -0.0106 C   0  0  0  0  0  4           0  0  0
   -2.0979    0.0335    5.4017 C   0  0  0  0  0  4           0  0  0
   -1.5651    0.0259    4.0330 C   0  0  0  0  0  4           0  0  0
   -2.3956   -1.1384    6.1342 C   0  0  0  0  0  4           0  0  0
   -0.5416    0.0000    1.3968 C   0  0  0  0  0  4           0  0  0
   -2.2973    1.2705    6.0495 C   0  0  0  0  0  4           0  0  0
   -0.1819    0.0102    3.8003 C   0  0  0  0  0  4           0  0  0
   -2.4285    0.0357    2.9278 C   0  0  0  0  0  4           0  0  0
   -2.8602   -1.0612    7.4580 C   0  0  0  0  0  4           0  0  0
    0.3238    0.0000    2.4972 C   0  0  0  0  0  4           0  0  0
   -1.9226    0.0250    1.6250 C   0  0  0  0  0  4           0  0  0
   -2.7608    1.3422    7.3654 C   0  0  0  0  0  4           0  0  0
   -3.0380    0.1769    8.0697 C   0  0  0  0  0  4           0  0  0
   -2.3023   -2.4857    5.5197 C   0  0  0  0  0  4           0  0  0
    1.7852    2.5151   -0.0073 C   0  0  0  0  0  4           0  0  0
    1.1742    4.2406   -1.4834 C   0  0  0  0  0  4           0  0  0
    0.0000    0.0000   -0.0000 C   0  0  0  0  0  4           0  0  0
    1.7796   -2.5209    0.0147 C   0  0  0  0  0  4           0  0  0
    1.5761   -3.0784   -1.3905 C   0  0  0  0  0  4           0  0  0
    2.8417   -3.0962   -2.2487 C   0  0  0  0  0  4           0  0  0
    2.5715   -3.6619   -3.6339 C   0  0  0  0  0  4           0  0  0
  1 11  1  0     0  0
  2 27  2  0     0  0
  3 28  1  0     0  0
  3 29  1  0     0  0
  4  5  2  0     0  0
  4  6  1  0     0  0
  5  7  1  0     0  0
  6 12  1  0     0  0
  7 12  2  0     0  0
  8 13  1  0     0  0
  8 14  1  0     0  0
  8 30  1  0     0  0
  9 11  1  0     0  0
  9 13  2  0     0  0
 10 12  1  0     0  0
 10 27  1  0     0  0
 11 14  2  0     0  0
 13 31  1  0     0  0
 14 28  1  0     0  0
 15 16  1  0     0  0
 15 17  1  0     0  0
 15 19  2  0     0  0
 16 20  2  0     0  0
 16 21  1  0     0  0
 17 22  2  0     0  0
 17 27  1  0     0  0
 18 23  2  0     0  0
 18 24  1  0     0  0
 18 30  1  0     0  0
 19 25  1  0     0  0
 20 23  1  0     0  0
 21 24  2  0     0  0
 22 26  1  0     0  0
 25 26  2  0     0  0
 31 32  1  0     0  0
 32 33  1  0     0  0
 33 34  1  0     0  0
M  END
> <standard_type>
pIC50

> <# Confs.>
25

> <canonical_smiles>
ClC(N=C1CCCC)=C(COC)N1CC2=CC=C(C3=CC=CC=C3C(NC4=NN=NN4)=O)C=C2

> <standard_relation>
=

> <Publication_ID>
nan

> <predicted_activity_value>
6.040958607678906

> <actual_activity_value>
6.154901959985743

> <Compound>
14

> <standard_units>
nM

> hash
15081376124894451268

$$$$
14_
XXILIB    08252103443D 0   0.00000     0.00000

 34 37  0     1  0            999 V2000
    5.0102   -1.4826    0.0264 Cl  0  0  0  0  0  1           0  0  0
   -3.0019   -2.7432    4.5421 O   0  0  0  0  0  2           0  0  0
    1.6666   -2.9053   -1.3552 O   0  0  0  0  0  2           0  0  0
   -1.5188   -6.4085    4.3374 N   0  0  0  0  0  3           0  0  0
   -0.6189   -6.6582    5.2792 N   0  0  0  0  0  3           0  0  0
   -1.9075   -5.1448    4.5537 N   0  0  0  0  0  3           0  0  0
   -0.4353   -5.5632    6.0913 N   0  0  0  0  0  3           0  0  0
    1.4520    0.0000   -0.0000 N   0  0  0  0  0  3           0  0  0
    3.5373    0.7678    0.0096 N   0  0  0  0  0  3           0  0  0
   -1.4132   -3.3526    6.1159 N   0  0  0  0  0  3           0  0  0
    3.5506   -0.6018    0.0167 C   0  0  0  0  0  4           0  0  0
   -1.2415   -4.6291    5.6307 C   0  0  0  0  0  4           0  0  0
    2.2665    1.1166    0.0000 C   0  0  0  0  0  4           0  0  0
    2.2672   -1.1152    0.0106 C   0  0  0  0  0  4           0  0  0
   -2.0979    0.0335    5.4017 C   0  0  0  0  0  4           0  0  0
   -1.5651    0.0259    4.0330 C   0  0  0  0  0  4           0  0  0
   -2.3956   -1.1384    6.1342 C   0  0  0  0  0  4           0  0  0
   -0.5416    0.0000    1.3968 C   0  0  0  0  0  4           0  0  0
   -2.2973    1.2705    6.0495 C   0  0  0  0  0  4           0  0  0
   -0.1819    0.0102    3.8003 C   0  0  0  0  0  4           0  0  0
   -2.4285    0.0357    2.9278 C   0  0  0  0  0  4           0  0  0
   -2.8602   -1.0612    7.4580 C   0  0  0  0  0  4           0  0  0
    0.3238    0.0000    2.4972 C   0  0  0  0  0  4           0  0  0
   -1.9226    0.0250    1.6250 C   0  0  0  0  0  4           0  0  0
   -2.7608    1.3422    7.3654 C   0  0  0  0  0  4           0  0  0
   -3.0380    0.1769    8.0697 C   0  0  0  0  0  4           0  0  0
   -2.3023   -2.4857    5.5197 C   0  0  0  0  0  4           0  0  0
    1.7852   -2.5151    0.0073 C   0  0  0  0  0  4           0  0  0
    1.2069   -4.2448   -1.4769 C   0  0  0  0  0  4           0  0  0
    0.0000    0.0000   -0.0000 C   0  0  0  0  0  4           0  0  0
    1.7796    2.5209   -0.0147 C   0  0  0  0  0  4           0  0  0
    2.9229    3.5307   -0.0107 C   0  0  0  0  0  4           0  0  0
    2.4709    4.9916   -0.0255 C   0  0  0  0  0  4           0  0  0
    3.6556    5.9446   -0.0207 C   0  0  0  0  0  4           0  0  0
  1 11  1  0     0  0
  2 27  2  0     0  0
  3 28  1  0     0  0
  3 29  1  0     0  0
  4  5  2  0     0  0
  4  6  1  0     0  0
  5  7  1  0     0  0
  6 12  1  0     0  0
  7 12  2  0     0  0
  8 13  1  0     0  0
  8 14  1  0     0  0
  8 30  1  0     0  0
  9 11  1  0     0  0
  9 13  2  0     0  0
 10 12  1  0     0  0
 10 27  1  0     0  0
 11 14  2  0     0  0
 13 31  1  0     0  0
 14 28  1  0     0  0
 15 16  1  0     0  0
 15 17  1  0     0  0
 15 19  2  0     0  0
 16 20  2  0     0  0
 16 21  1  0     0  0
 17 22  2  0     0  0
 17 27  1  0     0  0
 18 23  2  0     0  0
 18 24  1  0     0  0
 18 30  1  0     0  0
 19 25  1  0     0  0
 20 23  1  0     0  0
 21 24  2  0     0  0
 22 26  1  0     0  0
 25 26  2  0     0  0
 31 32  1  0     0  0
 32 33  1  0     0  0
 33 34  1  0     0  0
M  END
> <standard_type>
pIC50

> <# Confs.>
25

> <canonical_smiles>
ClC(N=C1CCCC)=C(COC)N1CC2=CC=C(C3=CC=CC=C3C(NC4=NN=NN4)=O)C=C2

> <standard_relation>
=

> <Publication_ID>
nan

> <predicted_activity_value>
6.040958607678906

> <actual_activity_value>
6.154901959985743

> <Compound>
14

> <standard_units>
nM

> hash
15081376124894451268

$$$$
14_
XXILIB    08252103443D 0   0.00000     0.00000

 34 37  0     1  0            999 V2000
    5.0102   -1.4826    0.0264 Cl  0  0  0  0  0  1           0  0  0
   -3.0019   -2.7432    4.5421 O   0  0  0  0  0  2           0  0  0
    1.6666   -2.9053   -1.3552 O   0  0  0  0  0  2           0  0  0
   -1.5188   -6.4085    4.3374 N   0  0  0  0  0  3           0  0  0
   -0.6189   -6.6582    5.2792 N   0  0  0  0  0  3           0  0  0
   -1.9075   -5.1448    4.5537 N   0  0  0  0  0  3           0  0  0
   -0.4353   -5.5632    6.0913 N   0  0  0  0  0  3           0  0  0
    1.4520    0.0000   -0.0000 N   0  0  0  0  0  3           0  0  0
    3.5373    0.7678    0.0096 N   0  0  0  0  0  3           0  0  0
   -1.4132   -3.3526    6.1159 N   0  0  0  0  0  3           0  0  0
    3.5506   -0.6018    0.0167 C   0  0  0  0  0  4           0  0  0
   -1.2415   -4.6291    5.6307 C   0  0  0  0  0  4           0  0  0
    2.2665    1.1166    0.0000 C   0  0  0  0  0  4           0  0  0
    2.2672   -1.1152    0.0106 C   0  0  0  0  0  4           0  0  0
   -2.0979    0.0335    5.4017 C   0  0  0  0  0  4           0  0  0
   -1.5651    0.0259    4.0330 C   0  0  0  0  0  4           0  0  0
   -2.3956   -1.1384    6.1342 C   0  0  0  0  0  4           0  0  0
   -0.5416    0.0000    1.3968 C   0  0  0  0  0  4           0  0  0
   -2.2973    1.2705    6.0495 C   0  0  0  0  0  4           0  0  0
   -0.1819    0.0102    3.8003 C   0  0  0  0  0  4           0  0  0
   -2.4285    0.0357    2.9278 C   0  0  0  0  0  4           0  0  0
   -2.8602   -1.0612    7.4580 C   0  0  0  0  0  4           0  0  0
    0.3238    0.0000    2.4972 C   0  0  0  0  0  4           0  0  0
   -1.9226    0.0250    1.6250 C   0  0  0  0  0  4           0  0  0
   -2.7608    1.3422    7.3654 C   0  0  0  0  0  4           0  0  0
   -3.0380    0.1769    8.0697 C   0  0  0  0  0  4           0  0  0
   -2.3023   -2.4857    5.5197 C   0  0  0  0  0  4           0  0  0
    1.7852   -2.5151    0.0073 C   0  0  0  0  0  4           0  0  0
    1.2069   -4.2448   -1.4769 C   0  0  0  0  0  4           0  0  0
    0.0000    0.0000   -0.0000 C   0  0  0  0  0  4           0  0  0
    1.7796    2.5209   -0.0147 C   0  0  0  0  0  4           0  0  0
    2.5227    3.4023    0.9841 C   0  0  0  0  0  4           0  0  0
    2.4002    2.9451    2.4383 C   0  0  0  0  0  4           0  0  0
    3.1617    3.8639    3.3805 C   0  0  0  0  0  4           0  0  0
  1 11  1  0     0  0
  2 27  2  0     0  0
  3 28  1  0     0  0
  3 29  1  0     0  0
  4  5  2  0     0  0
  4  6  1  0     0  0
  5  7  1  0     0  0
  6 12  1  0     0  0
  7 12  2  0     0  0
  8 13  1  0     0  0
  8 14  1  0     0  0
  8 30  1  0     0  0
  9 11  1  0     0  0
  9 13  2  0     0  0
 10 12  1  0     0  0
 10 27  1  0     0  0
 11 14  2  0     0  0
 13 31  1  0     0  0
 14 28  1  0     0  0
 15 16  1  0     0  0
 15 17  1  0     0  0
 15 19  2  0     0  0
 16 20  2  0     0  0
 16 21  1  0     0  0
 17 22  2  0     0  0
 17 27  1  0     0  0
 18 23  2  0     0  0
 18 24  1  0     0  0
 18 30  1  0     0  0
 19 25  1  0     0  0
 20 23  1  0     0  0
 21 24  2  0     0  0
 22 26  1  0     0  0
 25 26  2  0     0  0
 31 32  1  0     0  0
 32 33  1  0     0  0
 33 34  1  0     0  0
M  END
> <standard_type>
pIC50

> <# Confs.>
25

> <canonical_smiles>
ClC(N=C1CCCC)=C(COC)N1CC2=CC=C(C3=CC=CC=C3C(NC4=NN=NN4)=O)C=C2

> <standard_relation>
=

> <Publication_ID>
nan

> <predicted_activity_value>
6.040958607678906

> <actual_activity_value>
6.154901959985743

> <Compound>
14

> <standard_units>
nM

> hash
15081376124894451268

$$$$
14_
XXILIB    08252103443D 0   0.00000     0.00000

 34 37  0     1  0            999 V2000
    5.0102    1.4826   -0.0264 Cl  0  0  0  0  0  1           0  0  0
   -1.5656   -2.9487    5.1023 O   0  0  0  0  0  2           0  0  0
    1.6366    2.9013   -1.3680 O   0  0  0  0  0  2           0  0  0
    1.4625   -5.4695    5.4926 N   0  0  0  0  0  3           0  0  0
    2.3339   -5.0953    6.4198 N   0  0  0  0  0  3           0  0  0
    0.5207   -4.5167    5.4953 N   0  0  0  0  0  3           0  0  0
    1.9510   -3.9136    7.0109 N   0  0  0  0  0  3           0  0  0
    1.4520    0.0000    0.0000 N   0  0  0  0  0  3           0  0  0
    3.5373   -0.7678   -0.0096 N   0  0  0  0  0  3           0  0  0
    0.0553   -2.4501    6.6825 N   0  0  0  0  0  3           0  0  0
    3.5506    0.6018   -0.0167 C   0  0  0  0  0  4           0  0  0
    0.8228   -3.5640    6.4283 C   0  0  0  0  0  4           0  0  0
    2.2665   -1.1166    0.0000 C   0  0  0  0  0  4           0  0  0
    2.2672    1.1152   -0.0106 C   0  0  0  0  0  4           0  0  0
   -2.0979    0.0335    5.4017 C   0  0  0  0  0  4           0  0  0
   -1.5651    0.0259    4.0330 C   0  0  0  0  0  4           0  0  0
   -1.8459   -0.9867    6.3474 C   0  0  0  0  0  4           0  0  0
   -0.5416    0.0000    1.3968 C   0  0  0  0  0  4           0  0  0
   -2.8784    1.1298    5.8241 C   0  0  0  0  0  4           0  0  0
   -0.1819    0.0102    3.8003 C   0  0  0  0  0  4           0  0  0
   -2.4285    0.0357    2.9278 C   0  0  0  0  0  4           0  0  0
   -2.3489   -0.8953    7.6561 C   0  0  0  0  0  4           0  0  0
    0.3238   -0.0000    2.4972 C   0  0  0  0  0  4           0  0  0
   -1.9226    0.0250    1.6250 C   0  0  0  0  0  4           0  0  0
   -3.3776    1.2156    7.1260 C   0  0  0  0  0  4           0  0  0
   -3.1094    0.2055    8.0418 C   0  0  0  0  0  4           0  0  0
   -1.1091   -2.2219    5.9827 C   0  0  0  0  0  4           0  0  0
    1.7852    2.5151   -0.0073 C   0  0  0  0  0  4           0  0  0
    1.1742    4.2406   -1.4834 C   0  0  0  0  0  4           0  0  0
    0.0000    0.0000   -0.0000 C   0  0  0  0  0  4           0  0  0
    1.7796   -2.5209    0.0147 C   0  0  0  0  0  4           0  0  0
    1.5761   -3.0784   -1.3905 C   0  0  0  0  0  4           0  0  0
    1.0750   -4.5228   -1.4269 C   0  0  0  0  0  4           0  0  0
    0.8933   -5.0169   -2.8533 C   0  0  0  0  0  4           0  0  0
  1 11  1  0     0  0
  2 27  2  0     0  0
  3 28  1  0     0  0
  3 29  1  0     0  0
  4  5  2  0     0  0
  4  6  1  0     0  0
  5  7  1  0     0  0
  6 12  1  0     0  0
  7 12  2  0     0  0
  8 13  1  0     0  0
  8 14  1  0     0  0
  8 30  1  0     0  0
  9 11  1  0     0  0
  9 13  2  0     0  0
 10 12  1  0     0  0
 10 27  1  0     0  0
 11 14  2  0     0  0
 13 31  1  0     0  0
 14 28  1  0     0  0
 15 16  1  0     0  0
 15 17  1  0     0  0
 15 19  2  0     0  0
 16 20  2  0     0  0
 16 21  1  0     0  0
 17 22  2  0     0  0
 17 27  1  0     0  0
 18 23  2  0     0  0
 18 24  1  0     0  0
 18 30  1  0     0  0
 19 25  1  0     0  0
 20 23  1  0     0  0
 21 24  2  0     0  0
 22 26  1  0     0  0
 25 26  2  0     0  0
 31 32  1  0     0  0
 32 33  1  0     0  0
 33 34  1  0     0  0
M  END
> <standard_type>
pIC50

> <# Confs.>
25

> <canonical_smiles>
ClC(N=C1CCCC)=C(COC)N1CC2=CC=C(C3=CC=CC=C3C(NC4=NN=NN4)=O)C=C2

> <standard_relation>
=

> <Publication_ID>
nan

> <predicted_activity_value>
6.040958607678906

> <actual_activity_value>
6.154901959985743

> <Compound>
14

> <standard_units>
nM

> hash
15081376124894451268

$$$$
14_
XXILIB    08252103443D 0   0.00000     0.00000

 34 37  0     1  0            999 V2000
    5.0102   -1.4826    0.0264 Cl  0  0  0  0  0  1           0  0  0
   -3.0019   -2.7432    4.5421 O   0  0  0  0  0  2           0  0  0
    1.6366   -2.9013    1.3680 O   0  0  0  0  0  2           0  0  0
   -1.5188   -6.4085    4.3374 N   0  0  0  0  0  3           0  0  0
   -0.6189   -6.6582    5.2792 N   0  0  0  0  0  3           0  0  0
   -1.9075   -5.1448    4.5537 N   0  0  0  0  0  3           0  0  0
   -0.4353   -5.5632    6.0913 N   0  0  0  0  0  3           0  0  0
    1.4520    0.0000    0.0000 N   0  0  0  0  0  3           0  0  0
    3.5373    0.7678    0.0096 N   0  0  0  0  0  3           0  0  0
   -1.4132   -3.3526    6.1159 N   0  0  0  0  0  3           0  0  0
    3.5506   -0.6018    0.0167 C   0  0  0  0  0  4           0  0  0
   -1.2415   -4.6291    5.6307 C   0  0  0  0  0  4           0  0  0
    2.2665    1.1166    0.0000 C   0  0  0  0  0  4           0  0  0
    2.2672   -1.1152    0.0106 C   0  0  0  0  0  4           0  0  0
   -2.0979    0.0335    5.4017 C   0  0  0  0  0  4           0  0  0
   -1.5651    0.0259    4.0330 C   0  0  0  0  0  4           0  0  0
   -2.3956   -1.1384    6.1342 C   0  0  0  0  0  4           0  0  0
   -0.5416    0.0000    1.3968 C   0  0  0  0  0  4           0  0  0
   -2.2973    1.2705    6.0495 C   0  0  0  0  0  4           0  0  0
   -0.1819    0.0102    3.8003 C   0  0  0  0  0  4           0  0  0
   -2.4285    0.0357    2.9278 C   0  0  0  0  0  4           0  0  0
   -2.8602   -1.0612    7.4580 C   0  0  0  0  0  4           0  0  0
    0.3238    0.0000    2.4972 C   0  0  0  0  0  4           0  0  0
   -1.9226    0.0250    1.6250 C   0  0  0  0  0  4           0  0  0
   -2.7608    1.3422    7.3654 C   0  0  0  0  0  4           0  0  0
   -3.0380    0.1769    8.0697 C   0  0  0  0  0  4           0  0  0
   -2.3023   -2.4857    5.5197 C   0  0  0  0  0  4           0  0  0
    1.7852   -2.5151    0.0073 C   0  0  0  0  0  4           0  0  0
    1.1742   -4.2406    1.4834 C   0  0  0  0  0  4           0  0  0
    0.0000    0.0000   -0.0000 C   0  0  0  0  0  4           0  0  0
    1.7796    2.5209   -0.0147 C   0  0  0  0  0  4           0  0  0
    2.9229    3.5307   -0.0107 C   0  0  0  0  0  4           0  0  0
    2.4709    4.9916   -0.0255 C   0  0  0  0  0  4           0  0  0
    3.6556    5.9446   -0.0207 C   0  0  0  0  0  4           0  0  0
  1 11  1  0     0  0
  2 27  2  0     0  0
  3 28  1  0     0  0
  3 29  1  0     0  0
  4  5  2  0     0  0
  4  6  1  0     0  0
  5  7  1  0     0  0
  6 12  1  0     0  0
  7 12  2  0     0  0
  8 13  1  0     0  0
  8 14  1  0     0  0
  8 30  1  0     0  0
  9 11  1  0     0  0
  9 13  2  0     0  0
 10 12  1  0     0  0
 10 27  1  0     0  0
 11 14  2  0     0  0
 13 31  1  0     0  0
 14 28  1  0     0  0
 15 16  1  0     0  0
 15 17  1  0     0  0
 15 19  2  0     0  0
 16 20  2  0     0  0
 16 21  1  0     0  0
 17 22  2  0     0  0
 17 27  1  0     0  0
 18 23  2  0     0  0
 18 24  1  0     0  0
 18 30  1  0     0  0
 19 25  1  0     0  0
 20 23  1  0     0  0
 21 24  2  0     0  0
 22 26  1  0     0  0
 25 26  2  0     0  0
 31 32  1  0     0  0
 32 33  1  0     0  0
 33 34  1  0     0  0
M  END
> <standard_type>
pIC50

> <# Confs.>
25

> <canonical_smiles>
ClC(N=C1CCCC)=C(COC)N1CC2=CC=C(C3=CC=CC=C3C(NC4=NN=NN4)=O)C=C2

> <standard_relation>
=

> <Publication_ID>
nan

> <predicted_activity_value>
6.040958607678906

> <actual_activity_value>
6.154901959985743

> <Compound>
14

> <standard_units>
nM

> hash
15081376124894451268

$$$$
14_
XXILIB    08252103443D 0   0.00000     0.00000

 34 37  0     1  0            999 V2000
    5.0102   -1.4826    0.0264 Cl  0  0  0  0  0  1           0  0  0
   -3.0019   -2.7432    4.5421 O   0  0  0  0  0  2           0  0  0
    1.6366   -2.9013    1.3680 O   0  0  0  0  0  2           0  0  0
   -1.5188   -6.4085    4.3374 N   0  0  0  0  0  3           0  0  0
   -0.6189   -6.6582    5.2792 N   0  0  0  0  0  3           0  0  0
   -1.9075   -5.1448    4.5537 N   0  0  0  0  0  3           0  0  0
   -0.4353   -5.5632    6.0913 N   0  0  0  0  0  3           0  0  0
    1.4520    0.0000    0.0000 N   0  0  0  0  0  3           0  0  0
    3.5373    0.7678    0.0096 N   0  0  0  0  0  3           0  0  0
   -1.4132   -3.3526    6.1159 N   0  0  0  0  0  3           0  0  0
    3.5506   -0.6018    0.0167 C   0  0  0  0  0  4           0  0  0
   -1.2415   -4.6291    5.6307 C   0  0  0  0  0  4           0  0  0
    2.2665    1.1166    0.0000 C   0  0  0  0  0  4           0  0  0
    2.2672   -1.1152    0.0106 C   0  0  0  0  0  4           0  0  0
   -2.0979    0.0335    5.4017 C   0  0  0  0  0  4           0  0  0
   -1.5651    0.0259    4.0330 C   0  0  0  0  0  4           0  0  0
   -2.3956   -1.1384    6.1342 C   0  0  0  0  0  4           0  0  0
   -0.5416    0.0000    1.3968 C   0  0  0  0  0  4           0  0  0
   -2.2973    1.2705    6.0495 C   0  0  0  0  0  4           0  0  0
   -0.1819    0.0102    3.8003 C   0  0  0  0  0  4           0  0  0
   -2.4285    0.0357    2.9278 C   0  0  0  0  0  4           0  0  0
   -2.8602   -1.0612    7.4580 C   0  0  0  0  0  4           0  0  0
    0.3238    0.0000    2.4972 C   0  0  0  0  0  4           0  0  0
   -1.9226    0.0250    1.6250 C   0  0  0  0  0  4           0  0  0
   -2.7608    1.3422    7.3654 C   0  0  0  0  0  4           0  0  0
   -3.0380    0.1769    8.0697 C   0  0  0  0  0  4           0  0  0
   -2.3023   -2.4857    5.5197 C   0  0  0  0  0  4           0  0  0
    1.7852   -2.5151    0.0073 C   0  0  0  0  0  4           0  0  0
    1.1742   -4.2406    1.4834 C   0  0  0  0  0  4           0  0  0
    0.0000    0.0000   -0.0000 C   0  0  0  0  0  4           0  0  0
    1.7796    2.5209   -0.0147 C   0  0  0  0  0  4           0  0  0
    2.5227    3.4023    0.9841 C   0  0  0  0  0  4           0  0  0
    2.4002    2.9451    2.4383 C   0  0  0  0  0  4           0  0  0
    3.1617    3.8639    3.3805 C   0  0  0  0  0  4           0  0  0
  1 11  1  0     0  0
  2 27  2  0     0  0
  3 28  1  0     0  0
  3 29  1  0     0  0
  4  5  2  0     0  0
  4  6  1  0     0  0
  5  7  1  0     0  0
  6 12  1  0     0  0
  7 12  2  0     0  0
  8 13  1  0     0  0
  8 14  1  0     0  0
  8 30  1  0     0  0
  9 11  1  0     0  0
  9 13  2  0     0  0
 10 12  1  0     0  0
 10 27  1  0     0  0
 11 14  2  0     0  0
 13 31  1  0     0  0
 14 28  1  0     0  0
 15 16  1  0     0  0
 15 17  1  0     0  0
 15 19  2  0     0  0
 16 20  2  0     0  0
 16 21  1  0     0  0
 17 22  2  0     0  0
 17 27  1  0     0  0
 18 23  2  0     0  0
 18 24  1  0     0  0
 18 30  1  0     0  0
 19 25  1  0     0  0
 20 23  1  0     0  0
 21 24  2  0     0  0
 22 26  1  0     0  0
 25 26  2  0     0  0
 31 32  1  0     0  0
 32 33  1  0     0  0
 33 34  1  0     0  0
M  END
> <standard_type>
pIC50

> <# Confs.>
25

> <canonical_smiles>
ClC(N=C1CCCC)=C(COC)N1CC2=CC=C(C3=CC=CC=C3C(NC4=NN=NN4)=O)C=C2

> <standard_relation>
=

> <Publication_ID>
nan

> <predicted_activity_value>
6.040958607678906

> <actual_activity_value>
6.154901959985743

> <Compound>
14

> <standard_units>
nM

> hash
15081376124894451268

$$$$
14_
XXILIB    08252103443D 0   0.00000     0.00000

 34 37  0     1  0            999 V2000
    5.0102    1.4826   -0.0264 Cl  0  0  0  0  0  1           0  0  0
   -1.5656   -2.9487    5.1023 O   0  0  0  0  0  2           0  0  0
    1.6366    2.9013   -1.3680 O   0  0  0  0  0  2           0  0  0
    1.4625   -5.4695    5.4926 N   0  0  0  0  0  3           0  0  0
    2.3339   -5.0953    6.4198 N   0  0  0  0  0  3           0  0  0
    0.5207   -4.5167    5.4953 N   0  0  0  0  0  3           0  0  0
    1.9510   -3.9136    7.0109 N   0  0  0  0  0  3           0  0  0
    1.4520    0.0000    0.0000 N   0  0  0  0  0  3           0  0  0
    3.5373   -0.7678   -0.0096 N   0  0  0  0  0  3           0  0  0
    0.0553   -2.4501    6.6825 N   0  0  0  0  0  3           0  0  0
    3.5506    0.6018   -0.0167 C   0  0  0  0  0  4           0  0  0
    0.8228   -3.5640    6.4283 C   0  0  0  0  0  4           0  0  0
    2.2665   -1.1166    0.0000 C   0  0  0  0  0  4           0  0  0
    2.2672    1.1152   -0.0106 C   0  0  0  0  0  4           0  0  0
   -2.0979    0.0335    5.4017 C   0  0  0  0  0  4           0  0  0
   -1.5651    0.0259    4.0330 C   0  0  0  0  0  4           0  0  0
   -1.8459   -0.9867    6.3474 C   0  0  0  0  0  4           0  0  0
   -0.5416    0.0000    1.3968 C   0  0  0  0  0  4           0  0  0
   -2.8784    1.1298    5.8241 C   0  0  0  0  0  4           0  0  0
   -0.1819    0.0102    3.8003 C   0  0  0  0  0  4           0  0  0
   -2.4285    0.0357    2.9278 C   0  0  0  0  0  4           0  0  0
   -2.3489   -0.8953    7.6561 C   0  0  0  0  0  4           0  0  0
    0.3238   -0.0000    2.4972 C   0  0  0  0  0  4           0  0  0
   -1.9226    0.0250    1.6250 C   0  0  0  0  0  4           0  0  0
   -3.3776    1.2156    7.1260 C   0  0  0  0  0  4           0  0  0
   -3.1094    0.2055    8.0418 C   0  0  0  0  0  4           0  0  0
   -1.1091   -2.2219    5.9827 C   0  0  0  0  0  4           0  0  0
    1.7852    2.5151   -0.0073 C   0  0  0  0  0  4           0  0  0
    1.1742    4.2406   -1.4834 C   0  0  0  0  0  4           0  0  0
    0.0000    0.0000   -0.0000 C   0  0  0  0  0  4           0  0  0
    1.7796   -2.5209    0.0147 C   0  0  0  0  0  4           0  0  0
    2.5421   -3.3882    1.0112 C   0  0  0  0  0  4           0  0  0
    2.0762   -4.8439    1.0625 C   0  0  0  0  0  4           0  0  0
    2.8746   -5.6524    2.0727 C   0  0  0  0  0  4           0  0  0
  1 11  1  0     0  0
  2 27  2  0     0  0
  3 28  1  0     0  0
  3 29  1  0     0  0
  4  5  2  0     0  0
  4  6  1  0     0  0
  5  7  1  0     0  0
  6 12  1  0     0  0
  7 12  2  0     0  0
  8 13  1  0     0  0
  8 14  1  0     0  0
  8 30  1  0     0  0
  9 11  1  0     0  0
  9 13  2  0     0  0
 10 12  1  0     0  0
 10 27  1  0     0  0
 11 14  2  0     0  0
 13 31  1  0     0  0
 14 28  1  0     0  0
 15 16  1  0     0  0
 15 17  1  0     0  0
 15 19  2  0     0  0
 16 20  2  0     0  0
 16 21  1  0     0  0
 17 22  2  0     0  0
 17 27  1  0     0  0
 18 23  2  0     0  0
 18 24  1  0     0  0
 18 30  1  0     0  0
 19 25  1  0     0  0
 20 23  1  0     0  0
 21 24  2  0     0  0
 22 26  1  0     0  0
 25 26  2  0     0  0
 31 32  1  0     0  0
 32 33  1  0     0  0
 33 34  1  0     0  0
M  END
> <standard_type>
pIC50

> <# Confs.>
25

> <canonical_smiles>
ClC(N=C1CCCC)=C(COC)N1CC2=CC=C(C3=CC=CC=C3C(NC4=NN=NN4)=O)C=C2

> <standard_relation>
=

> <Publication_ID>
nan

> <predicted_activity_value>
6.040958607678906

> <actual_activity_value>
6.154901959985743

> <Compound>
14

> <standard_units>
nM

> hash
15081376124894451268

$$$$
14_
XXILIB    08252103443D 0   0.00000     0.00000

 34 37  0     1  0            999 V2000
    5.0102    1.4826   -0.0264 Cl  0  0  0  0  0  1           0  0  0
   -1.5656   -2.9487    5.1023 O   0  0  0  0  0  2           0  0  0
    1.6366    2.9013   -1.3680 O   0  0  0  0  0  2           0  0  0
    1.4625   -5.4695    5.4926 N   0  0  0  0  0  3           0  0  0
    2.3339   -5.0953    6.4198 N   0  0  0  0  0  3           0  0  0
    0.5207   -4.5167    5.4953 N   0  0  0  0  0  3           0  0  0
    1.9510   -3.9136    7.0109 N   0  0  0  0  0  3           0  0  0
    1.4520    0.0000    0.0000 N   0  0  0  0  0  3           0  0  0
    3.5373   -0.7678   -0.0096 N   0  0  0  0  0  3           0  0  0
    0.0553   -2.4501    6.6825 N   0  0  0  0  0  3           0  0  0
    3.5506    0.6018   -0.0167 C   0  0  0  0  0  4           0  0  0
    0.8228   -3.5640    6.4283 C   0  0  0  0  0  4           0  0  0
    2.2665   -1.1166    0.0000 C   0  0  0  0  0  4           0  0  0
    2.2672    1.1152   -0.0106 C   0  0  0  0  0  4           0  0  0
   -2.0979    0.0335    5.4017 C   0  0  0  0  0  4           0  0  0
   -1.5651    0.0259    4.0330 C   0  0  0  0  0  4           0  0  0
   -1.8459   -0.9867    6.3474 C   0  0  0  0  0  4           0  0  0
   -0.5416    0.0000    1.3968 C   0  0  0  0  0  4           0  0  0
   -2.8784    1.1298    5.8241 C   0  0  0  0  0  4           0  0  0
   -0.1819    0.0102    3.8003 C   0  0  0  0  0  4           0  0  0
   -2.4285    0.0357    2.9278 C   0  0  0  0  0  4           0  0  0
   -2.3489   -0.8953    7.6561 C   0  0  0  0  0  4           0  0  0
    0.3238   -0.0000    2.4972 C   0  0  0  0  0  4           0  0  0
   -1.9226    0.0250    1.6250 C   0  0  0  0  0  4           0  0  0
   -3.3776    1.2156    7.1260 C   0  0  0  0  0  4           0  0  0
   -3.1094    0.2055    8.0418 C   0  0  0  0  0  4           0  0  0
   -1.1091   -2.2219    5.9827 C   0  0  0  0  0  4           0  0  0
    1.7852    2.5151   -0.0073 C   0  0  0  0  0  4           0  0  0
    1.1742    4.2406   -1.4834 C   0  0  0  0  0  4           0  0  0
    0.0000    0.0000   -0.0000 C   0  0  0  0  0  4           0  0  0
    1.7796   -2.5209    0.0147 C   0  0  0  0  0  4           0  0  0
    1.5761   -3.0784   -1.3905 C   0  0  0  0  0  4           0  0  0
    2.8417   -3.0962   -2.2487 C   0  0  0  0  0  4           0  0  0
    2.5715   -3.6619   -3.6339 C   0  0  0  0  0  4           0  0  0
  1 11  1  0     0  0
  2 27  2  0     0  0
  3 28  1  0     0  0
  3 29  1  0     0  0
  4  5  2  0     0  0
  4  6  1  0     0  0
  5  7  1  0     0  0
  6 12  1  0     0  0
  7 12  2  0     0  0
  8 13  1  0     0  0
  8 14  1  0     0  0
  8 30  1  0     0  0
  9 11  1  0     0  0
  9 13  2  0     0  0
 10 12  1  0     0  0
 10 27  1  0     0  0
 11 14  2  0     0  0
 13 31  1  0     0  0
 14 28  1  0     0  0
 15 16  1  0     0  0
 15 17  1  0     0  0
 15 19  2  0     0  0
 16 20  2  0     0  0
 16 21  1  0     0  0
 17 22  2  0     0  0
 17 27  1  0     0  0
 18 23  2  0     0  0
 18 24  1  0     0  0
 18 30  1  0     0  0
 19 25  1  0     0  0
 20 23  1  0     0  0
 21 24  2  0     0  0
 22 26  1  0     0  0
 25 26  2  0     0  0
 31 32  1  0     0  0
 32 33  1  0     0  0
 33 34  1  0     0  0
M  END
> <standard_type>
pIC50

> <# Confs.>
25

> <canonical_smiles>
ClC(N=C1CCCC)=C(COC)N1CC2=CC=C(C3=CC=CC=C3C(NC4=NN=NN4)=O)C=C2

> <standard_relation>
=

> <Publication_ID>
nan

> <predicted_activity_value>
6.040958607678906

> <actual_activity_value>
6.154901959985743

> <Compound>
14

> <standard_units>
nM

> hash
15081376124894451268

$$$$
14_
XXILIB    08252103443D 0   0.00000     0.00000

 34 37  0     1  0            999 V2000
    5.0102   -1.4826    0.0264 Cl  0  0  0  0  0  1           0  0  0
   -1.5656   -2.9487    5.1023 O   0  0  0  0  0  2           0  0  0
    1.6666   -2.9053   -1.3552 O   0  0  0  0  0  2           0  0  0
    1.4625   -5.4695    5.4926 N   0  0  0  0  0  3           0  0  0
    2.3339   -5.0953    6.4198 N   0  0  0  0  0  3           0  0  0
    0.5207   -4.5167    5.4953 N   0  0  0  0  0  3           0  0  0
    1.9510   -3.9136    7.0109 N   0  0  0  0  0  3           0  0  0
    1.4520    0.0000   -0.0000 N   0  0  0  0  0  3           0  0  0
    3.5373    0.7678    0.0096 N   0  0  0  0  0  3           0  0  0
    0.0553   -2.4501    6.6825 N   0  0  0  0  0  3           0  0  0
    3.5506   -0.6018    0.0167 C   0  0  0  0  0  4           0  0  0
    0.8228   -3.5640    6.4283 C   0  0  0  0  0  4           0  0  0
    2.2665    1.1166    0.0000 C   0  0  0  0  0  4           0  0  0
    2.2672   -1.1152    0.0106 C   0  0  0  0  0  4           0  0  0
   -2.0979    0.0335    5.4017 C   0  0  0  0  0  4           0  0  0
   -1.5651    0.0259    4.0330 C   0  0  0  0  0  4           0  0  0
   -1.8459   -0.9867    6.3474 C   0  0  0  0  0  4           0  0  0
   -0.5416    0.0000    1.3968 C   0  0  0  0  0  4           0  0  0
   -2.8784    1.1298    5.8241 C   0  0  0  0  0  4           0  0  0
   -0.1819    0.0102    3.8003 C   0  0  0  0  0  4           0  0  0
   -2.4285    0.0357    2.9278 C   0  0  0  0  0  4           0  0  0
   -2.3489   -0.8953    7.6561 C   0  0  0  0  0  4           0  0  0
    0.3238   -0.0000    2.4972 C   0  0  0  0  0  4           0  0  0
   -1.9226    0.0250    1.6250 C   0  0  0  0  0  4           0  0  0
   -3.3776    1.2156    7.1260 C   0  0  0  0  0  4           0  0  0
   -3.1094    0.2055    8.0418 C   0  0  0  0  0  4           0  0  0
   -1.1091   -2.2219    5.9827 C   0  0  0  0  0  4           0  0  0
    1.7852   -2.5151    0.0073 C   0  0  0  0  0  4           0  0  0
    1.2069   -4.2448   -1.4769 C   0  0  0  0  0  4           0  0  0
    0.0000    0.0000   -0.0000 C   0  0  0  0  0  4           0  0  0
    1.7796    2.5209   -0.0147 C   0  0  0  0  0  4           0  0  0
    2.9229    3.5307   -0.0107 C   0  0  0  0  0  4           0  0  0
    2.4709    4.9916   -0.0255 C   0  0  0  0  0  4           0  0  0
    3.6556    5.9446   -0.0207 C   0  0  0  0  0  4           0  0  0
  1 11  1  0     0  0
  2 27  2  0     0  0
  3 28  1  0     0  0
  3 29  1  0     0  0
  4  5  2  0     0  0
  4  6  1  0     0  0
  5  7  1  0     0  0
  6 12  1  0     0  0
  7 12  2  0     0  0
  8 13  1  0     0  0
  8 14  1  0     0  0
  8 30  1  0     0  0
  9 11  1  0     0  0
  9 13  2  0     0  0
 10 12  1  0     0  0
 10 27  1  0     0  0
 11 14  2  0     0  0
 13 31  1  0     0  0
 14 28  1  0     0  0
 15 16  1  0     0  0
 15 17  1  0     0  0
 15 19  2  0     0  0
 16 20  2  0     0  0
 16 21  1  0     0  0
 17 22  2  0     0  0
 17 27  1  0     0  0
 18 23  2  0     0  0
 18 24  1  0     0  0
 18 30  1  0     0  0
 19 25  1  0     0  0
 20 23  1  0     0  0
 21 24  2  0     0  0
 22 26  1  0     0  0
 25 26  2  0     0  0
 31 32  1  0     0  0
 32 33  1  0     0  0
 33 34  1  0     0  0
M  END
> <standard_type>
pIC50

> <# Confs.>
25

> <canonical_smiles>
ClC(N=C1CCCC)=C(COC)N1CC2=CC=C(C3=CC=CC=C3C(NC4=NN=NN4)=O)C=C2

> <standard_relation>
=

> <Publication_ID>
nan

> <predicted_activity_value>
6.040958607678906

> <actual_activity_value>
6.154901959985743

> <Compound>
14

> <standard_units>
nM

> hash
15081376124894451268

$$$$
14_
XXILIB    08252103443D 0   0.00000     0.00000

 34 37  0     1  0            999 V2000
    5.0102    1.4826   -0.0264 Cl  0  0  0  0  0  1           0  0  0
   -1.0776    2.8854    5.0983 O   0  0  0  0  0  2           0  0  0
    1.6366    2.9013   -1.3680 O   0  0  0  0  0  2           0  0  0
    2.2161    4.9502    5.8495 N   0  0  0  0  0  3           0  0  0
    2.8836    4.4986    6.9029 N   0  0  0  0  0  3           0  0  0
    1.1481    4.1483    5.7441 N   0  0  0  0  0  3           0  0  0
    2.2476    3.4161    7.4651 N   0  0  0  0  0  3           0  0  0
    1.4520    0.0000    0.0000 N   0  0  0  0  0  3           0  0  0
    3.5373   -0.7678   -0.0096 N   0  0  0  0  0  3           0  0  0
    0.2153    2.2318    6.9076 N   0  0  0  0  0  3           0  0  0
    3.5506    0.6018   -0.0167 C   0  0  0  0  0  4           0  0  0
    1.1706    3.2077    6.7362 C   0  0  0  0  0  4           0  0  0
    2.2665   -1.1166    0.0000 C   0  0  0  0  0  4           0  0  0
    2.2672    1.1152   -0.0106 C   0  0  0  0  0  4           0  0  0
   -2.0979    0.0335    5.4017 C   0  0  0  0  0  4           0  0  0
   -1.5651    0.0259    4.0330 C   0  0  0  0  0  4           0  0  0
   -1.8231    1.0502    6.3449 C   0  0  0  0  0  4           0  0  0
   -0.5416   -0.0000    1.3968 C   0  0  0  0  0  4           0  0  0
   -2.9617   -1.0065    5.8035 C   0  0  0  0  0  4           0  0  0
   -0.1819    0.0102    3.8003 C   0  0  0  0  0  4           0  0  0
   -2.4285    0.0357    2.9278 C   0  0  0  0  0  4           0  0  0
   -2.4026    1.0205    7.6245 C   0  0  0  0  0  4           0  0  0
    0.3238    0.0000    2.4972 C   0  0  0  0  0  4           0  0  0
   -1.9226    0.0250    1.6250 C   0  0  0  0  0  4           0  0  0
   -3.5344   -1.0324    7.0775 C   0  0  0  0  0  4           0  0  0
   -3.2578   -0.0174    7.9852 C   0  0  0  0  0  4           0  0  0
   -0.8625    2.1430    6.0544 C   0  0  0  0  0  4           0  0  0
    1.7852    2.5151   -0.0073 C   0  0  0  0  0  4           0  0  0
    1.1742    4.2406   -1.4834 C   0  0  0  0  0  4           0  0  0
    0.0000    0.0000    0.0000 C   0  0  0  0  0  4           0  0  0
    1.7796   -2.5209    0.0147 C   0  0  0  0  0  4           0  0  0
    1.5761   -3.0784   -1.3905 C   0  0  0  0  0  4           0  0  0
    1.0750   -4.5228   -1.4269 C   0  0  0  0  0  4           0  0  0
    0.8933   -5.0169   -2.8533 C   0  0  0  0  0  4           0  0  0
  1 11  1  0     0  0
  2 27  2  0     0  0
  3 28  1  0     0  0
  3 29  1  0     0  0
  4  5  2  0     0  0
  4  6  1  0     0  0
  5  7  1  0     0  0
  6 12  1  0     0  0
  7 12  2  0     0  0
  8 13  1  0     0  0
  8 14  1  0     0  0
  8 30  1  0     0  0
  9 11  1  0     0  0
  9 13  2  0     0  0
 10 12  1  0     0  0
 10 27  1  0     0  0
 11 14  2  0     0  0
 13 31  1  0     0  0
 14 28  1  0     0  0
 15 16  1  0     0  0
 15 17  1  0     0  0
 15 19  2  0     0  0
 16 20  2  0     0  0
 16 21  1  0     0  0
 17 22  2  0     0  0
 17 27  1  0     0  0
 18 23  2  0     0  0
 18 24  1  0     0  0
 18 30  1  0     0  0
 19 25  1  0     0  0
 20 23  1  0     0  0
 21 24  2  0     0  0
 22 26  1  0     0  0
 25 26  2  0     0  0
 31 32  1  0     0  0
 32 33  1  0     0  0
 33 34  1  0     0  0
M  END
> <standard_type>
pIC50

> <# Confs.>
25

> <canonical_smiles>
ClC(N=C1CCCC)=C(COC)N1CC2=CC=C(C3=CC=CC=C3C(NC4=NN=NN4)=O)C=C2

> <standard_relation>
=

> <Publication_ID>
nan

> <predicted_activity_value>
6.040958607678906

> <actual_activity_value>
6.154901959985743

> <Compound>
14

> <standard_units>
nM

> hash
15081376124894451268

$$$$
14_
XXILIB    08252103443D 0   0.00000     0.00000

 34 37  0     1  0            999 V2000
    5.0102   -1.4826    0.0264 Cl  0  0  0  0  0  1           0  0  0
   -1.5656   -2.9487    5.1023 O   0  0  0  0  0  2           0  0  0
    1.6666   -2.9053   -1.3552 O   0  0  0  0  0  2           0  0  0
    1.4625   -5.4695    5.4926 N   0  0  0  0  0  3           0  0  0
    2.3339   -5.0953    6.4198 N   0  0  0  0  0  3           0  0  0
    0.5207   -4.5167    5.4953 N   0  0  0  0  0  3           0  0  0
    1.9510   -3.9136    7.0109 N   0  0  0  0  0  3           0  0  0
    1.4520    0.0000   -0.0000 N   0  0  0  0  0  3           0  0  0
    3.5373    0.7678    0.0096 N   0  0  0  0  0  3           0  0  0
    0.0553   -2.4501    6.6825 N   0  0  0  0  0  3           0  0  0
    3.5506   -0.6018    0.0167 C   0  0  0  0  0  4           0  0  0
    0.8228   -3.5640    6.4283 C   0  0  0  0  0  4           0  0  0
    2.2665    1.1166    0.0000 C   0  0  0  0  0  4           0  0  0
    2.2672   -1.1152    0.0106 C   0  0  0  0  0  4           0  0  0
   -2.0979    0.0335    5.4017 C   0  0  0  0  0  4           0  0  0
   -1.5651    0.0259    4.0330 C   0  0  0  0  0  4           0  0  0
   -1.8459   -0.9867    6.3474 C   0  0  0  0  0  4           0  0  0
   -0.5416    0.0000    1.3968 C   0  0  0  0  0  4           0  0  0
   -2.8784    1.1298    5.8241 C   0  0  0  0  0  4           0  0  0
   -0.1819    0.0102    3.8003 C   0  0  0  0  0  4           0  0  0
   -2.4285    0.0357    2.9278 C   0  0  0  0  0  4           0  0  0
   -2.3489   -0.8953    7.6561 C   0  0  0  0  0  4           0  0  0
    0.3238   -0.0000    2.4972 C   0  0  0  0  0  4           0  0  0
   -1.9226    0.0250    1.6250 C   0  0  0  0  0  4           0  0  0
   -3.3776    1.2156    7.1260 C   0  0  0  0  0  4           0  0  0
   -3.1094    0.2055    8.0418 C   0  0  0  0  0  4           0  0  0
   -1.1091   -2.2219    5.9827 C   0  0  0  0  0  4           0  0  0
    1.7852   -2.5151    0.0073 C   0  0  0  0  0  4           0  0  0
    1.2069   -4.2448   -1.4769 C   0  0  0  0  0  4           0  0  0
    0.0000    0.0000   -0.0000 C   0  0  0  0  0  4           0  0  0
    1.7796    2.5209   -0.0147 C   0  0  0  0  0  4           0  0  0
    2.5227    3.4023    0.9841 C   0  0  0  0  0  4           0  0  0
    2.4002    2.9451    2.4383 C   0  0  0  0  0  4           0  0  0
    3.1617    3.8639    3.3805 C   0  0  0  0  0  4           0  0  0
  1 11  1  0     0  0
  2 27  2  0     0  0
  3 28  1  0     0  0
  3 29  1  0     0  0
  4  5  2  0     0  0
  4  6  1  0     0  0
  5  7  1  0     0  0
  6 12  1  0     0  0
  7 12  2  0     0  0
  8 13  1  0     0  0
  8 14  1  0     0  0
  8 30  1  0     0  0
  9 11  1  0     0  0
  9 13  2  0     0  0
 10 12  1  0     0  0
 10 27  1  0     0  0
 11 14  2  0     0  0
 13 31  1  0     0  0
 14 28  1  0     0  0
 15 16  1  0     0  0
 15 17  1  0     0  0
 15 19  2  0     0  0
 16 20  2  0     0  0
 16 21  1  0     0  0
 17 22  2  0     0  0
 17 27  1  0     0  0
 18 23  2  0     0  0
 18 24  1  0     0  0
 18 30  1  0     0  0
 19 25  1  0     0  0
 20 23  1  0     0  0
 21 24  2  0     0  0
 22 26  1  0     0  0
 25 26  2  0     0  0
 31 32  1  0     0  0
 32 33  1  0     0  0
 33 34  1  0     0  0
M  END
> <standard_type>
pIC50

> <# Confs.>
25

> <canonical_smiles>
ClC(N=C1CCCC)=C(COC)N1CC2=CC=C(C3=CC=CC=C3C(NC4=NN=NN4)=O)C=C2

> <standard_relation>
=

> <Publication_ID>
nan

> <predicted_activity_value>
6.040958607678906

> <actual_activity_value>
6.154901959985743

> <Compound>
14

> <standard_units>
nM

> hash
15081376124894451268

$$$$
14_
XXILIB    08252103443D 0   0.00000     0.00000

 34 37  0     1  0            999 V2000
    5.0102    1.4826   -0.0264 Cl  0  0  0  0  0  1           0  0  0
    0.9607    0.0502    6.4301 O   0  0  0  0  0  2           0  0  0
    1.6366    2.9013   -1.3680 O   0  0  0  0  0  2           0  0  0
    3.6659   -2.8228    6.1079 N   0  0  0  0  0  3           0  0  0
    3.1324   -4.0364    6.0654 N   0  0  0  0  0  3           0  0  0
    2.6237   -1.9881    6.2164 N   0  0  0  0  0  3           0  0  0
    1.7604   -3.9771    6.1449 N   0  0  0  0  0  3           0  0  0
    1.4520    0.0000    0.0000 N   0  0  0  0  0  3           0  0  0
    3.5373   -0.7678   -0.0096 N   0  0  0  0  0  3           0  0  0
    0.2032   -2.1385    6.3408 N   0  0  0  0  0  3           0  0  0
    3.5506    0.6018   -0.0167 C   0  0  0  0  0  4           0  0  0
    1.4561   -2.6991    6.2382 C   0  0  0  0  0  4           0  0  0
    2.2665   -1.1166    0.0000 C   0  0  0  0  0  4           0  0  0
    2.2672    1.1152   -0.0106 C   0  0  0  0  0  4           0  0  0
   -2.1191    0.0216    5.3934 C   0  0  0  0  0  4           0  0  0
   -1.5819    0.0175    4.0265 C   0  0  0  0  0  4           0  0  0
   -1.3521   -0.2919    6.5388 C   0  0  0  0  0  4           0  0  0
   -0.5416    0.0000    1.3968 C   0  0  0  0  0  4           0  0  0
   -3.4654    0.3902    5.5964 C   0  0  0  0  0  4           0  0  0
   -0.5175    0.8588    3.6701 C   0  0  0  0  0  4           0  0  0
   -2.1228   -0.8274    3.0463 C   0  0  0  0  0  4           0  0  0
   -1.9165   -0.2244    7.8238 C   0  0  0  0  0  4           0  0  0
   -0.0052    0.8519    2.3697 C   0  0  0  0  0  4           0  0  0
   -1.6100   -0.8345    1.7462 C   0  0  0  0  0  4           0  0  0
   -4.0226    0.4545    6.8759 C   0  0  0  0  0  4           0  0  0
   -3.2472    0.1513    7.9883 C   0  0  0  0  0  4           0  0  0
    0.0475   -0.7729    6.4312 C   0  0  0  0  0  4           0  0  0
    1.7852    2.5151   -0.0073 C   0  0  0  0  0  4           0  0  0
    1.1742    4.2406   -1.4834 C   0  0  0  0  0  4           0  0  0
    0.0000    0.0000   -0.0000 C   0  0  0  0  0  4           0  0  0
    1.7796   -2.5209    0.0147 C   0  0  0  0  0  4           0  0  0
    1.6035   -3.0584    1.4313 C   0  0  0  0  0  4           0  0  0
    1.1033   -4.5021    1.4979 C   0  0  0  0  0  4           0  0  0
    0.9494   -4.9759    2.9343 C   0  0  0  0  0  4           0  0  0
  1 11  1  0     0  0
  2 27  2  0     0  0
  3 28  1  0     0  0
  3 29  1  0     0  0
  4  5  2  0     0  0
  4  6  1  0     0  0
  5  7  1  0     0  0
  6 12  1  0     0  0
  7 12  2  0     0  0
  8 13  1  0     0  0
  8 14  1  0     0  0
  8 30  1  0     0  0
  9 11  1  0     0  0
  9 13  2  0     0  0
 10 12  1  0     0  0
 10 27  1  0     0  0
 11 14  2  0     0  0
 13 31  1  0     0  0
 14 28  1  0     0  0
 15 16  1  0     0  0
 15 17  1  0     0  0
 15 19  2  0     0  0
 16 20  2  0     0  0
 16 21  1  0     0  0
 17 22  2  0     0  0
 17 27  1  0     0  0
 18 23  2  0     0  0
 18 24  1  0     0  0
 18 30  1  0     0  0
 19 25  1  0     0  0
 20 23  1  0     0  0
 21 24  2  0     0  0
 22 26  1  0     0  0
 25 26  2  0     0  0
 31 32  1  0     0  0
 32 33  1  0     0  0
 33 34  1  0     0  0
M  END
> <standard_type>
pIC50

> <# Confs.>
25

> <canonical_smiles>
ClC(N=C1CCCC)=C(COC)N1CC2=CC=C(C3=CC=CC=C3C(NC4=NN=NN4)=O)C=C2

> <standard_relation>
=

> <Publication_ID>
nan

> <predicted_activity_value>
6.040958607678906

> <actual_activity_value>
6.154901959985743

> <Compound>
14

> <standard_units>
nM

> hash
15081376124894451268

$$$$
14_
XXILIB    08252103443D 0   0.00000     0.00000

 34 37  0     1  0            999 V2000
    5.0102   -1.4826    0.0264 Cl  0  0  0  0  0  1           0  0  0
    0.9607    0.0502    6.4301 O   0  0  0  0  0  2           0  0  0
    1.6666   -2.9053   -1.3552 O   0  0  0  0  0  2           0  0  0
    3.6659   -2.8228    6.1079 N   0  0  0  0  0  3           0  0  0
    3.1324   -4.0364    6.0654 N   0  0  0  0  0  3           0  0  0
    2.6237   -1.9881    6.2164 N   0  0  0  0  0  3           0  0  0
    1.7604   -3.9771    6.1449 N   0  0  0  0  0  3           0  0  0
    1.4520    0.0000   -0.0000 N   0  0  0  0  0  3           0  0  0
    3.5373    0.7678    0.0096 N   0  0  0  0  0  3           0  0  0
    0.2032   -2.1385    6.3408 N   0  0  0  0  0  3           0  0  0
    3.5506   -0.6018    0.0167 C   0  0  0  0  0  4           0  0  0
    1.4561   -2.6991    6.2382 C   0  0  0  0  0  4           0  0  0
    2.2665    1.1166    0.0000 C   0  0  0  0  0  4           0  0  0
    2.2672   -1.1152    0.0106 C   0  0  0  0  0  4           0  0  0
   -2.1191    0.0216    5.3934 C   0  0  0  0  0  4           0  0  0
   -1.5819    0.0175    4.0265 C   0  0  0  0  0  4           0  0  0
   -1.3521   -0.2919    6.5388 C   0  0  0  0  0  4           0  0  0
   -0.5416    0.0000    1.3968 C   0  0  0  0  0  4           0  0  0
   -3.4654    0.3902    5.5964 C   0  0  0  0  0  4           0  0  0
   -0.5175    0.8588    3.6701 C   0  0  0  0  0  4           0  0  0
   -2.1228   -0.8274    3.0463 C   0  0  0  0  0  4           0  0  0
   -1.9165   -0.2244    7.8238 C   0  0  0  0  0  4           0  0  0
   -0.0052    0.8519    2.3697 C   0  0  0  0  0  4           0  0  0
   -1.6100   -0.8345    1.7462 C   0  0  0  0  0  4           0  0  0
   -4.0226    0.4545    6.8759 C   0  0  0  0  0  4           0  0  0
   -3.2472    0.1513    7.9883 C   0  0  0  0  0  4           0  0  0
    0.0475   -0.7729    6.4312 C   0  0  0  0  0  4           0  0  0
    1.7852   -2.5151    0.0073 C   0  0  0  0  0  4           0  0  0
    1.2069   -4.2448   -1.4769 C   0  0  0  0  0  4           0  0  0
    0.0000    0.0000   -0.0000 C   0  0  0  0  0  4           0  0  0
    1.7796    2.5209   -0.0147 C   0  0  0  0  0  4           0  0  0
    2.5421    3.3882   -1.0112 C   0  0  0  0  0  4           0  0  0
    2.4478    2.9104   -2.4609 C   0  0  0  0  0  4           0  0  0
    3.2275    3.8158   -3.4010 C   0  0  0  0  0  4           0  0  0
  1 11  1  0     0  0
  2 27  2  0     0  0
  3 28  1  0     0  0
  3 29  1  0     0  0
  4  5  2  0     0  0
  4  6  1  0     0  0
  5  7  1  0     0  0
  6 12  1  0     0  0
  7 12  2  0     0  0
  8 13  1  0     0  0
  8 14  1  0     0  0
  8 30  1  0     0  0
  9 11  1  0     0  0
  9 13  2  0     0  0
 10 12  1  0     0  0
 10 27  1  0     0  0
 11 14  2  0     0  0
 13 31  1  0     0  0
 14 28  1  0     0  0
 15 16  1  0     0  0
 15 17  1  0     0  0
 15 19  2  0     0  0
 16 20  2  0     0  0
 16 21  1  0     0  0
 17 22  2  0     0  0
 17 27  1  0     0  0
 18 23  2  0     0  0
 18 24  1  0     0  0
 18 30  1  0     0  0
 19 25  1  0     0  0
 20 23  1  0     0  0
 21 24  2  0     0  0
 22 26  1  0     0  0
 25 26  2  0     0  0
 31 32  1  0     0  0
 32 33  1  0     0  0
 33 34  1  0     0  0
M  END
> <standard_type>
pIC50

> <# Confs.>
25

> <canonical_smiles>
ClC(N=C1CCCC)=C(COC)N1CC2=CC=C(C3=CC=CC=C3C(NC4=NN=NN4)=O)C=C2

> <standard_relation>
=

> <Publication_ID>
nan

> <predicted_activity_value>
6.040958607678906

> <actual_activity_value>
6.154901959985743

> <Compound>
14

> <standard_units>
nM

> hash
15081376124894451268

$$$$
14_
XXILIB    08252103443D 0   0.00000     0.00000

 34 37  0     1  0            999 V2000
    5.0102    1.4826   -0.0264 Cl  0  0  0  0  0  1           0  0  0
   -2.0888    3.2205    5.2476 O   0  0  0  0  0  2           0  0  0
    1.6366    2.9013   -1.3680 O   0  0  0  0  0  2           0  0  0
    1.0522    5.6262    5.0943 N   0  0  0  0  0  3           0  0  0
    2.1282    5.1134    5.6759 N   0  0  0  0  0  3           0  0  0
    0.1011    4.6937    5.2382 N   0  0  0  0  0  3           0  0  0
    1.8668    3.8630    6.1862 N   0  0  0  0  0  3           0  0  0
    1.4520    0.0000    0.0000 N   0  0  0  0  0  3           0  0  0
    3.5373   -0.7678   -0.0096 N   0  0  0  0  0  3           0  0  0
   -0.1170    2.4819    6.2167 N   0  0  0  0  0  3           0  0  0
    3.5506    0.6018   -0.0167 C   0  0  0  0  0  4           0  0  0
    0.6040    3.6130    5.9078 C   0  0  0  0  0  4           0  0  0
    2.2665   -1.1166    0.0000 C   0  0  0  0  0  4           0  0  0
    2.2672    1.1152   -0.0106 C   0  0  0  0  0  4           0  0  0
   -2.1152   -0.0258    5.3949 C   0  0  0  0  0  4           0  0  0
   -1.5804   -0.0191    4.0271 C   0  0  0  0  0  4           0  0  0
   -2.1088    1.1035    6.2454 C   0  0  0  0  0  4           0  0  0
   -0.5416    0.0000    1.3968 C   0  0  0  0  0  4           0  0  0
   -2.7033   -1.2076    5.8919 C   0  0  0  0  0  4           0  0  0
   -2.1055    0.8444    3.0543 C   0  0  0  0  0  4           0  0  0
   -0.5330   -0.8778    3.6628 C   0  0  0  0  0  4           0  0  0
   -2.6786    1.0418    7.5282 C   0  0  0  0  0  4           0  0  0
   -1.5937    0.8519    1.7536 C   0  0  0  0  0  4           0  0  0
   -0.0211   -0.8698    2.3624 C   0  0  0  0  0  4           0  0  0
   -3.2674   -1.2645    7.1687 C   0  0  0  0  0  4           0  0  0
   -3.2583   -0.1393    7.9840 C   0  0  0  0  0  4           0  0  0
   -1.4411    2.3694    5.8539 C   0  0  0  0  0  4           0  0  0
    1.7852    2.5151   -0.0073 C   0  0  0  0  0  4           0  0  0
    1.1742    4.2406   -1.4834 C   0  0  0  0  0  4           0  0  0
    0.0000    0.0000    0.0000 C   0  0  0  0  0  4           0  0  0
    1.7796   -2.5209    0.0147 C   0  0  0  0  0  4           0  0  0
    2.5227   -3.4023   -0.9841 C   0  0  0  0  0  4           0  0  0
    2.4002   -2.9451   -2.4383 C   0  0  0  0  0  4           0  0  0
    3.1617   -3.8639   -3.3805 C   0  0  0  0  0  4           0  0  0
  1 11  1  0     0  0
  2 27  2  0     0  0
  3 28  1  0     0  0
  3 29  1  0     0  0
  4  5  2  0     0  0
  4  6  1  0     0  0
  5  7  1  0     0  0
  6 12  1  0     0  0
  7 12  2  0     0  0
  8 13  1  0     0  0
  8 14  1  0     0  0
  8 30  1  0     0  0
  9 11  1  0     0  0
  9 13  2  0     0  0
 10 12  1  0     0  0
 10 27  1  0     0  0
 11 14  2  0     0  0
 13 31  1  0     0  0
 14 28  1  0     0  0
 15 16  1  0     0  0
 15 17  1  0     0  0
 15 19  2  0     0  0
 16 20  2  0     0  0
 16 21  1  0     0  0
 17 22  2  0     0  0
 17 27  1  0     0  0
 18 23  2  0     0  0
 18 24  1  0     0  0
 18 30  1  0     0  0
 19 25  1  0     0  0
 20 23  1  0     0  0
 21 24  2  0     0  0
 22 26  1  0     0  0
 25 26  2  0     0  0
 31 32  1  0     0  0
 32 33  1  0     0  0
 33 34  1  0     0  0
M  END
> <standard_type>
pIC50

> <# Confs.>
25

> <canonical_smiles>
ClC(N=C1CCCC)=C(COC)N1CC2=CC=C(C3=CC=CC=C3C(NC4=NN=NN4)=O)C=C2

> <standard_relation>
=

> <Publication_ID>
nan

> <predicted_activity_value>
6.040958607678906

> <actual_activity_value>
6.154901959985743

> <Compound>
14

> <standard_units>
nM

> hash
15081376124894451268

$$$$
14_
XXILIB    08252103443D 0   0.00000     0.00000

 34 37  0     1  0            999 V2000
    5.0102   -1.4826    0.0264 Cl  0  0  0  0  0  1           0  0  0
   -4.1321   -2.3128    4.4552 O   0  0  0  0  0  2           0  0  0
    1.6366   -2.9013    1.3680 O   0  0  0  0  0  2           0  0  0
   -7.1499   -1.9822    1.9137 N   0  0  0  0  0  3           0  0  0
   -7.6674   -0.7616    1.8774 N   0  0  0  0  0  3           0  0  0
   -6.1577   -1.9132    2.8112 N   0  0  0  0  0  3           0  0  0
   -7.0100    0.0807    2.7439 N   0  0  0  0  0  3           0  0  0
    1.4520    0.0000    0.0000 N   0  0  0  0  0  3           0  0  0
    3.5373    0.7678    0.0096 N   0  0  0  0  0  3           0  0  0
   -5.1570   -0.2428    4.2622 N   0  0  0  0  0  3           0  0  0
    3.5506   -0.6018    0.0167 C   0  0  0  0  0  4           0  0  0
   -6.0739   -0.6462    3.3182 C   0  0  0  0  0  4           0  0  0
    2.2665    1.1166    0.0000 C   0  0  0  0  0  4           0  0  0
    2.2672   -1.1152    0.0106 C   0  0  0  0  0  4           0  0  0
   -2.0638    0.0030    5.4149 C   0  0  0  0  0  4           0  0  0
   -1.5399    0.0011    4.0428 C   0  0  0  0  0  4           0  0  0
   -3.3009   -0.5739    5.7832 C   0  0  0  0  0  4           0  0  0
   -0.5416   -0.0000    1.3968 C   0  0  0  0  0  4           0  0  0
   -1.2861    0.5780    6.4415 C   0  0  0  0  0  4           0  0  0
   -1.2953   -1.2044    3.3685 C   0  0  0  0  0  4           0  0  0
   -1.2711    1.2057    3.3766 C   0  0  0  0  0  4           0  0  0
   -3.7226   -0.5780    7.1234 C   0  0  0  0  0  4           0  0  0
   -0.7995   -1.2048    2.0616 C   0  0  0  0  0  4           0  0  0
   -0.7758    1.2051    2.0697 C   0  0  0  0  0  4           0  0  0
   -1.7103    0.5727    7.7726 C   0  0  0  0  0  4           0  0  0
   -2.9257   -0.0084    8.1130 C   0  0  0  0  0  4           0  0  0
   -4.2333   -1.1289    4.7712 C   0  0  0  0  0  4           0  0  0
    1.7852   -2.5151    0.0073 C   0  0  0  0  0  4           0  0  0
    1.1742   -4.2406    1.4834 C   0  0  0  0  0  4           0  0  0
    0.0000    0.0000   -0.0000 C   0  0  0  0  0  4           0  0  0
    1.7796    2.5209   -0.0147 C   0  0  0  0  0  4           0  0  0
    2.5421    3.3882   -1.0112 C   0  0  0  0  0  4           0  0  0
    2.4478    2.9104   -2.4609 C   0  0  0  0  0  4           0  0  0
    3.2275    3.8158   -3.4010 C   0  0  0  0  0  4           0  0  0
  1 11  1  0     0  0
  2 27  2  0     0  0
  3 28  1  0     0  0
  3 29  1  0     0  0
  4  5  2  0     0  0
  4  6  1  0     0  0
  5  7  1  0     0  0
  6 12  1  0     0  0
  7 12  2  0     0  0
  8 13  1  0     0  0
  8 14  1  0     0  0
  8 30  1  0     0  0
  9 11  1  0     0  0
  9 13  2  0     0  0
 10 12  1  0     0  0
 10 27  1  0     0  0
 11 14  2  0     0  0
 13 31  1  0     0  0
 14 28  1  0     0  0
 15 16  1  0     0  0
 15 17  1  0     0  0
 15 19  2  0     0  0
 16 20  2  0     0  0
 16 21  1  0     0  0
 17 22  2  0     0  0
 17 27  1  0     0  0
 18 23  2  0     0  0
 18 24  1  0     0  0
 18 30  1  0     0  0
 19 25  1  0     0  0
 20 23  1  0     0  0
 21 24  2  0     0  0
 22 26  1  0     0  0
 25 26  2  0     0  0
 31 32  1  0     0  0
 32 33  1  0     0  0
 33 34  1  0     0  0
M  END
> <standard_type>
pIC50

> <# Confs.>
25

> <canonical_smiles>
ClC(N=C1CCCC)=C(COC)N1CC2=CC=C(C3=CC=CC=C3C(NC4=NN=NN4)=O)C=C2

> <standard_relation>
=

> <Publication_ID>
nan

> <predicted_activity_value>
6.040958607678906

> <actual_activity_value>
6.154901959985743

> <Compound>
14

> <standard_units>
nM

> hash
15081376124894451268

$$$$
14_
XXILIB    08252103443D 0   0.00000     0.00000

 34 37  0     1  0            999 V2000
    5.0102    1.4826   -0.0264 Cl  0  0  0  0  0  1           0  0  0
   -5.1172    0.4294    4.2365 O   0  0  0  0  0  2           0  0  0
    1.6366    2.9013   -1.3680 O   0  0  0  0  0  2           0  0  0
   -7.1279   -1.8717    1.7189 N   0  0  0  0  0  3           0  0  0
   -6.7715   -3.1476    1.7833 N   0  0  0  0  0  3           0  0  0
   -6.3589   -1.2495    2.6224 N   0  0  0  0  0  3           0  0  0
   -5.7836   -3.3389    2.7213 N   0  0  0  0  0  3           0  0  0
    1.4520    0.0000    0.0000 N   0  0  0  0  0  3           0  0  0
    3.5373   -0.7678   -0.0096 N   0  0  0  0  0  3           0  0  0
   -4.6224   -1.8350    4.2157 N   0  0  0  0  0  3           0  0  0
    3.5506    0.6018   -0.0167 C   0  0  0  0  0  4           0  0  0
   -5.5358   -2.1523    3.2361 C   0  0  0  0  0  4           0  0  0
    2.2665   -1.1166    0.0000 C   0  0  0  0  0  4           0  0  0
    2.2672    1.1152   -0.0106 C   0  0  0  0  0  4           0  0  0
   -2.1152   -0.0258    5.3949 C   0  0  0  0  0  4           0  0  0
   -1.5804   -0.0191    4.0271 C   0  0  0  0  0  4           0  0  0
   -3.4612   -0.3224    5.7097 C   0  0  0  0  0  4           0  0  0
   -0.5416   -0.0000    1.3968 C   0  0  0  0  0  4           0  0  0
   -1.2427    0.2428    6.4701 C   0  0  0  0  0  4           0  0  0
   -2.1055    0.8444    3.0543 C   0  0  0  0  0  4           0  0  0
   -0.5330   -0.8778    3.6628 C   0  0  0  0  0  4           0  0  0
   -3.8976   -0.3564    7.0448 C   0  0  0  0  0  4           0  0  0
   -1.5937    0.8519    1.7536 C   0  0  0  0  0  4           0  0  0
   -0.0211   -0.8698    2.3624 C   0  0  0  0  0  4           0  0  0
   -1.6816    0.2093    7.7960 C   0  0  0  0  0  4           0  0  0
   -3.0070   -0.0940    8.0825 C   0  0  0  0  0  4           0  0  0
   -4.4794   -0.5362    4.6518 C   0  0  0  0  0  4           0  0  0
    1.7852    2.5151   -0.0073 C   0  0  0  0  0  4           0  0  0
    1.1742    4.2406   -1.4834 C   0  0  0  0  0  4           0  0  0
    0.0000    0.0000    0.0000 C   0  0  0  0  0  4           0  0  0
    1.7796   -2.5209    0.0147 C   0  0  0  0  0  4           0  0  0
    2.5227   -3.4023   -0.9841 C   0  0  0  0  0  4           0  0  0
    2.4002   -2.9451   -2.4383 C   0  0  0  0  0  4           0  0  0
    3.1617   -3.8639   -3.3805 C   0  0  0  0  0  4           0  0  0
  1 11  1  0     0  0
  2 27  2  0     0  0
  3 28  1  0     0  0
  3 29  1  0     0  0
  4  5  2  0     0  0
  4  6  1  0     0  0
  5  7  1  0     0  0
  6 12  1  0     0  0
  7 12  2  0     0  0
  8 13  1  0     0  0
  8 14  1  0     0  0
  8 30  1  0     0  0
  9 11  1  0     0  0
  9 13  2  0     0  0
 10 12  1  0     0  0
 10 27  1  0     0  0
 11 14  2  0     0  0
 13 31  1  0     0  0
 14 28  1  0     0  0
 15 16  1  0     0  0
 15 17  1  0     0  0
 15 19  2  0     0  0
 16 20  2  0     0  0
 16 21  1  0     0  0
 17 22  2  0     0  0
 17 27  1  0     0  0
 18 23  2  0     0  0
 18 24  1  0     0  0
 18 30  1  0     0  0
 19 25  1  0     0  0
 20 23  1  0     0  0
 21 24  2  0     0  0
 22 26  1  0     0  0
 25 26  2  0     0  0
 31 32  1  0     0  0
 32 33  1  0     0  0
 33 34  1  0     0  0
M  END
> <standard_type>
pIC50

> <# Confs.>
25

> <canonical_smiles>
ClC(N=C1CCCC)=C(COC)N1CC2=CC=C(C3=CC=CC=C3C(NC4=NN=NN4)=O)C=C2

> <standard_relation>
=

> <Publication_ID>
nan

> <predicted_activity_value>
6.040958607678906

> <actual_activity_value>
6.154901959985743

> <Compound>
14

> <standard_units>
nM

> hash
15081376124894451268

$$$$
