0
  CDPL    08252113263D 1   1.00000     0.00000

 31 34  0     0  0            999 V2000
    0.0000    0.0000    0.0000 Cl  0  0  0  0  0  1           0  0  0
    0.0000    0.0000    0.0000 C   0  0  0  0  0  4           0  0  0
    0.0000    0.0000    0.0000 N   0  0  0  0  0  3           0  0  0
    0.0000    0.0000    0.0000 C   0  0  0  0  0  4           0  0  0
    0.0000    0.0000    0.0000 C   0  0  0  0  0  4           0  0  0
    0.0000    0.0000    0.0000 C   0  0  0  0  0  4           0  0  0
    0.0000    0.0000    0.0000 C   0  0  0  0  0  4           0  0  0
    0.0000    0.0000    0.0000 C   0  0  0  0  0  4           0  0  0
    0.0000    0.0000    0.0000 C   0  0  0  0  0  4           0  0  0
    0.0000    0.0000    0.0000 C   0  0  0  0  0  4           0  0  0
    0.0000    0.0000    0.0000 O   0  0  0  0  0  2           0  0  0
    0.0000    0.0000    0.0000 O   0  0  0  0  0  2           0  0  0
    0.0000    0.0000    0.0000 N   0  0  0  0  0  3           0  0  0
    0.0000    0.0000    0.0000 C   0  0  0  0  0  4           0  0  0
    0.0000    0.0000    0.0000 C   0  0  0  0  0  4           0  0  0
    0.0000    0.0000    0.0000 C   0  0  0  0  0  4           0  0  0
    0.0000    0.0000    0.0000 C   0  0  0  0  0  4           0  0  0
    0.0000    0.0000    0.0000 C   0  0  0  0  0  4           0  0  0
    0.0000    0.0000    0.0000 C   0  0  0  0  0  4           0  0  0
    0.0000    0.0000    0.0000 C   0  0  0  0  0  4           0  0  0
    0.0000    0.0000    0.0000 C   0  0  0  0  0  4           0  0  0
    0.0000    0.0000    0.0000 C   0  0  0  0  0  4           0  0  0
    0.0000    0.0000    0.0000 C   0  0  0  0  0  4           0  0  0
    0.0000    0.0000    0.0000 C   0  0  0  0  0  4           0  0  0
    0.0000    0.0000    0.0000 C   0  0  0  0  0  4           0  0  0
    0.0000    0.0000    0.0000 N   0  0  0  0  0  3           0  0  0
    0.0000    0.0000    0.0000 N   0  0  0  0  0  3           0  0  0
    0.0000    0.0000    0.0000 N   0  0  0  0  0  3           0  0  0
    0.0000    0.0000    0.0000 N   0  0  0  0  0  3           0  0  0
    0.0000    0.0000    0.0000 C   0  0  0  0  0  4           0  0  0
    0.0000    0.0000    0.0000 C   0  0  0  0  0  4           0  0  0
  1  2  1  0     0  0
  2  3  1  0     0  0
  3  4  2  0     0  0
  4  5  1  0     0  0
  5  6  1  0     0  0
  6  7  1  0     0  0
  7  8  1  0     0  0
  2  9  2  0     0  0
  9 10  1  0     0  0
 10 11  1  0     0  0
 10 12  2  0     0  0
  4 13  1  0     0  0
  9 13  1  0     0  0
 13 14  1  0     0  0
 14 15  1  0     0  0
 15 16  2  0     0  0
 16 17  1  0     0  0
 17 18  2  0     0  0
 18 19  1  0     0  0
 19 20  2  0     0  0
 20 21  1  0     0  0
 21 22  2  0     0  0
 22 23  1  0     0  0
 19 24  1  0     0  0
 23 24  2  0     0  0
 24 25  1  0     0  0
 25 26  2  0     0  0
 26 27  1  0     0  0
 27 28  2  0     0  0
 25 29  1  0     0  0
 28 29  1  0     0  0
 18 30  1  0     0  0
 15 31  1  0     0  0
 30 31  2  0     0  0
M  END
> <Compound>
1

> <canonical_smiles>
ClC(N=C1CCCC)=C(C(O)=O)N1CC2=CC=C(C3=CC=CC=C3C4=NN=NN4)C=C2

> <standard_type>
pIC50

> <standard_units>
nM

> <standard_relation>
=

> <actual_activity_value>
8.886056647693163

> <predicted_activity_value>
8.130768280269024

> <Publication_ID>
Krovat_2003

$$$$
1
  CDPL    08252113263D 1   1.00000     0.00000

 30 33  0     0  0            999 V2000
    0.0000    0.0000    0.0000 Cl  0  0  0  0  0  1           0  0  0
    0.0000    0.0000    0.0000 C   0  0  0  0  0  4           0  0  0
    0.0000    0.0000    0.0000 N   0  0  0  0  0  3           0  0  0
    0.0000    0.0000    0.0000 C   0  0  0  0  0  4           0  0  0
    0.0000    0.0000    0.0000 C   0  0  0  0  0  4           0  0  0
    0.0000    0.0000    0.0000 C   0  0  0  0  0  4           0  0  0
    0.0000    0.0000    0.0000 C   0  0  0  0  0  4           0  0  0
    0.0000    0.0000    0.0000 C   0  0  0  0  0  4           0  0  0
    0.0000    0.0000    0.0000 C   0  0  0  0  0  4           0  0  0
    0.0000    0.0000    0.0000 C   0  0  0  0  0  4           0  0  0
    0.0000    0.0000    0.0000 O   0  0  0  0  0  2           0  0  0
    0.0000    0.0000    0.0000 N   0  0  0  0  0  3           0  0  0
    0.0000    0.0000    0.0000 C   0  0  0  0  0  4           0  0  0
    0.0000    0.0000    0.0000 C   0  0  0  0  0  4           0  0  0
    0.0000    0.0000    0.0000 C   0  0  0  0  0  4           0  0  0
    0.0000    0.0000    0.0000 C   0  0  0  0  0  4           0  0  0
    0.0000    0.0000    0.0000 C   0  0  0  0  0  4           0  0  0
    0.0000    0.0000    0.0000 C   0  0  0  0  0  4           0  0  0
    0.0000    0.0000    0.0000 C   0  0  0  0  0  4           0  0  0
    0.0000    0.0000    0.0000 C   0  0  0  0  0  4           0  0  0
    0.0000    0.0000    0.0000 C   0  0  0  0  0  4           0  0  0
    0.0000    0.0000    0.0000 C   0  0  0  0  0  4           0  0  0
    0.0000    0.0000    0.0000 C   0  0  0  0  0  4           0  0  0
    0.0000    0.0000    0.0000 C   0  0  0  0  0  4           0  0  0
    0.0000    0.0000    0.0000 N   0  0  0  0  0  3           0  0  0
    0.0000    0.0000    0.0000 N   0  0  0  0  0  3           0  0  0
    0.0000    0.0000    0.0000 N   0  0  0  0  0  3           0  0  0
    0.0000    0.0000    0.0000 N   0  0  0  0  0  3           0  0  0
    0.0000    0.0000    0.0000 C   0  0  0  0  0  4           0  0  0
    0.0000    0.0000    0.0000 C   0  0  0  0  0  4           0  0  0
  1  2  1  0     0  0
  2  3  1  0     0  0
  3  4  2  0     0  0
  4  5  1  0     0  0
  5  6  1  0     0  0
  6  7  1  0     0  0
  7  8  1  0     0  0
  2  9  2  0     0  0
  9 10  1  0     0  0
 10 11  1  0     0  0
  4 12  1  0     0  0
  9 12  1  0     0  0
 12 13  1  0     0  0
 13 14  1  0     0  0
 14 15  2  0     0  0
 15 16  1  0     0  0
 16 17  2  0     0  0
 17 18  1  0     0  0
 18 19  2  0     0  0
 19 20  1  0     0  0
 20 21  2  0     0  0
 21 22  1  0     0  0
 18 23  1  0     0  0
 22 23  2  0     0  0
 23 24  1  0     0  0
 24 25  2  0     0  0
 25 26  1  0     0  0
 26 27  2  0     0  0
 24 28  1  0     0  0
 27 28  1  0     0  0
 17 29  1  0     0  0
 14 30  1  0     0  0
 29 30  2  0     0  0
M  END
> <Compound>
2

> <canonical_smiles>
ClC(N=C1CCCC)=C(CO)N1CC2=CC=C(C3=CC=CC=C3C4=NN=NN4)C=C2

> <standard_type>
pIC50

> <standard_units>
nM

> <standard_relation>
=

> <actual_activity_value>
7.721246399047171

> <predicted_activity_value>
7.853871964321762

> <Publication_ID>
nan

$$$$
2
  CDPL    08252113263D 1   1.00000     0.00000

 30 33  0     0  0            999 V2000
    0.0000    0.0000    0.0000 I   0  0  0  0  0  1           0  0  0
    0.0000    0.0000    0.0000 C   0  0  0  0  0  4           0  0  0
    0.0000    0.0000    0.0000 N   0  0  0  0  0  3           0  0  0
    0.0000    0.0000    0.0000 C   0  0  0  0  0  4           0  0  0
    0.0000    0.0000    0.0000 C   0  0  0  0  0  4           0  0  0
    0.0000    0.0000    0.0000 C   0  0  0  0  0  4           0  0  0
    0.0000    0.0000    0.0000 C   0  0  0  0  0  4           0  0  0
    0.0000    0.0000    0.0000 C   0  0  0  0  0  4           0  0  0
    0.0000    0.0000    0.0000 C   0  0  0  0  0  4           0  0  0
    0.0000    0.0000    0.0000 C   0  0  0  0  0  4           0  0  0
    0.0000    0.0000    0.0000 O   0  0  0  0  0  2           0  0  0
    0.0000    0.0000    0.0000 N   0  0  0  0  0  3           0  0  0
    0.0000    0.0000    0.0000 C   0  0  0  0  0  4           0  0  0
    0.0000    0.0000    0.0000 C   0  0  0  0  0  4           0  0  0
    0.0000    0.0000    0.0000 C   0  0  0  0  0  4           0  0  0
    0.0000    0.0000    0.0000 C   0  0  0  0  0  4           0  0  0
    0.0000    0.0000    0.0000 C   0  0  0  0  0  4           0  0  0
    0.0000    0.0000    0.0000 C   0  0  0  0  0  4           0  0  0
    0.0000    0.0000    0.0000 C   0  0  0  0  0  4           0  0  0
    0.0000    0.0000    0.0000 C   0  0  0  0  0  4           0  0  0
    0.0000    0.0000    0.0000 C   0  0  0  0  0  4           0  0  0
    0.0000    0.0000    0.0000 C   0  0  0  0  0  4           0  0  0
    0.0000    0.0000    0.0000 C   0  0  0  0  0  4           0  0  0
    0.0000    0.0000    0.0000 C   0  0  0  0  0  4           0  0  0
    0.0000    0.0000    0.0000 N   0  0  0  0  0  3           0  0  0
    0.0000    0.0000    0.0000 N   0  0  0  0  0  3           0  0  0
    0.0000    0.0000    0.0000 N   0  0  0  0  0  3           0  0  0
    0.0000    0.0000    0.0000 N   0  0  0  0  0  3           0  0  0
    0.0000    0.0000    0.0000 C   0  0  0  0  0  4           0  0  0
    0.0000    0.0000    0.0000 C   0  0  0  0  0  4           0  0  0
  1  2  1  0     0  0
  2  3  1  0     0  0
  3  4  2  0     0  0
  4  5  1  0     0  0
  5  6  1  0     0  0
  6  7  1  0     0  0
  7  8  1  0     0  0
  2  9  2  0     0  0
  9 10  1  0     0  0
 10 11  1  0     0  0
  4 12  1  0     0  0
  9 12  1  0     0  0
 12 13  1  0     0  0
 13 14  1  0     0  0
 14 15  2  0     0  0
 15 16  1  0     0  0
 16 17  2  0     0  0
 17 18  1  0     0  0
 18 19  2  0     0  0
 19 20  1  0     0  0
 20 21  2  0     0  0
 21 22  1  0     0  0
 18 23  1  0     0  0
 22 23  2  0     0  0
 23 24  1  0     0  0
 24 25  2  0     0  0
 25 26  1  0     0  0
 26 27  2  0     0  0
 24 28  1  0     0  0
 27 28  1  0     0  0
 17 29  1  0     0  0
 14 30  1  0     0  0
 29 30  2  0     0  0
M  END
> <Compound>
3

> <canonical_smiles>
IC(N=C1CCCC)=C(CO)N1CC2=CC=C(C3=CC=CC=C3C4=NN=NN4)C=C2

> <standard_type>
pIC50

> <standard_units>
nM

> <standard_relation>
=

> <actual_activity_value>
7.698970004336019

> <predicted_activity_value>
7.6777807052660805

> <Publication_ID>
nan

$$$$
3
  CDPL    08252113263D 1   1.00000     0.00000

 29 32  0     0  0            999 V2000
    0.0000    0.0000    0.0000 C   0  0  0  0  0  4           0  0  0
    0.0000    0.0000    0.0000 C   0  0  0  0  0  4           0  0  0
    0.0000    0.0000    0.0000 C   0  0  0  0  0  4           0  0  0
    0.0000    0.0000    0.0000 C   0  0  0  0  0  4           0  0  0
    0.0000    0.0000    0.0000 C   0  0  0  0  0  4           0  0  0
    0.0000    0.0000    0.0000 N   0  0  0  0  0  3           0  0  0
    0.0000    0.0000    0.0000 C   0  0  0  0  0  4           0  0  0
    0.0000    0.0000    0.0000 C   0  0  0  0  0  4           0  0  0
    0.0000    0.0000    0.0000 C   0  0  0  0  0  4           0  0  0
    0.0000    0.0000    0.0000 O   0  0  0  0  0  2           0  0  0
    0.0000    0.0000    0.0000 N   0  0  0  0  0  4           0  0  0
    0.0000    0.0000    0.0000 C   0  0  0  0  0  4           0  0  0
    0.0000    0.0000    0.0000 C   0  0  0  0  0  4           0  0  0
    0.0000    0.0000    0.0000 C   0  0  0  0  0  4           0  0  0
    0.0000    0.0000    0.0000 C   0  0  0  0  0  4           0  0  0
    0.0000    0.0000    0.0000 C   0  0  0  0  0  4           0  0  0
    0.0000    0.0000    0.0000 C   0  0  0  0  0  4           0  0  0
    0.0000    0.0000    0.0000 C   0  0  0  0  0  4           0  0  0
    0.0000    0.0000    0.0000 C   0  0  0  0  0  4           0  0  0
    0.0000    0.0000    0.0000 C   0  0  0  0  0  4           0  0  0
    0.0000    0.0000    0.0000 C   0  0  0  0  0  4           0  0  0
    0.0000    0.0000    0.0000 C   0  0  0  0  0  4           0  0  0
    0.0000    0.0000    0.0000 C   0  0  0  0  0  4           0  0  0
    0.0000    0.0000    0.0000 N   0  0  0  0  0  3           0  0  0
    0.0000    0.0000    0.0000 N   0  0  0  0  0  3           0  0  0
    0.0000    0.0000    0.0000 N   0  0  0  0  0  3           0  0  0
    0.0000    0.0000    0.0000 N   0  0  0  0  0  3           0  0  0
    0.0000    0.0000    0.0000 C   0  0  0  0  0  4           0  0  0
    0.0000    0.0000    0.0000 C   0  0  0  0  0  4           0  0  0
  1  2  1  0     0  0
  2  3  1  0     0  0
  3  4  1  0     0  0
  4  5  1  0     0  0
  5  6  1  0     0  0
  6  7  2  0     0  0
  7  8  1  0     0  0
  8  9  1  0     0  0
  9 10  1  0     0  0
  8 11  1  0     0  0
  5 11  2  0     0  0
 11 12  1  0     0  0
 12 13  1  0     0  0
 13 14  2  0     0  0
 14 15  1  0     0  0
 15 16  2  0     0  0
 16 17  1  0     0  0
 17 18  2  0     0  0
 18 19  1  0     0  0
 19 20  2  0     0  0
 20 21  1  0     0  0
 17 22  1  0     0  0
 21 22  2  0     0  0
 22 23  1  0     0  0
 23 24  2  0     0  0
 24 25  1  0     0  0
 25 26  2  0     0  0
 23 27  1  0     0  0
 26 27  1  0     0  0
 16 28  1  0     0  0
 13 29  1  0     0  0
 28 29  2  0     0  0
M  END
> <Compound>
4

> <canonical_smiles>
CCCCC(N=CC1CO)=[N]1CC2=CC=C(C3=CC=CC=C3C4=NN=NN4)C=C2

> <standard_type>
pIC50

> <standard_units>
nM

> <standard_relation>
=

> <actual_activity_value>
7.5376020021010435

> <predicted_activity_value>
7.823908740944319

> <Publication_ID>
nan

$$$$
4
  CDPL    08252113263D 1   1.00000     0.00000

 34 36  0     0  0            999 V2000
    0.0000    0.0000    0.0000 Cl  0  0  0  0  0  1           0  0  0
    0.0000    0.0000    0.0000 C   0  0  0  0  0  4           0  0  0
    0.0000    0.0000    0.0000 N   0  0  0  0  0  3           0  0  0
    0.0000    0.0000    0.0000 C   0  0  0  0  0  4           0  0  0
    0.0000    0.0000    0.0000 C   0  0  0  0  0  4           0  0  0
    0.0000    0.0000    0.0000 C   0  0  0  0  0  4           0  0  0
    0.0000    0.0000    0.0000 C   0  0  0  0  0  4           0  0  0
    0.0000    0.0000    0.0000 C   0  0  0  0  0  4           0  0  0
    0.0000    0.0000    0.0000 C   0  0  0  0  0  4           0  0  0
    0.0000    0.0000    0.0000 C   0  0  0  0  0  4           0  0  0
    0.0000    0.0000    0.0000 O   0  0  0  0  0  2           0  0  0
    0.0000    0.0000    0.0000 C   0  0  0  0  0  4           0  0  0
    0.0000    0.0000    0.0000 N   0  0  0  0  0  3           0  0  0
    0.0000    0.0000    0.0000 C   0  0  0  0  0  4           0  0  0
    0.0000    0.0000    0.0000 C   0  0  0  0  0  4           0  0  0
    0.0000    0.0000    0.0000 C   0  0  0  0  0  4           0  0  0
    0.0000    0.0000    0.0000 C   0  0  0  0  0  4           0  0  0
    0.0000    0.0000    0.0000 C   0  0  0  0  0  4           0  0  0
    0.0000    0.0000    0.0000 N   0  0  0  0  0  3           0  0  0
    0.0000    0.0000    0.0000 C   0  0  0  0  0  4           0  0  0
    0.0000    0.0000    0.0000 C   0  0  0  0  0  4           0  0  0
    0.0000    0.0000    0.0000 C   0  0  0  0  0  4           0  0  0
    0.0000    0.0000    0.0000 Cl  0  0  0  0  0  1           0  0  0
    0.0000    0.0000    0.0000 C   0  0  0  0  0  4           0  0  0
    0.0000    0.0000    0.0000 C   0  0  0  0  0  4           0  0  0
    0.0000    0.0000    0.0000 C   0  0  0  0  0  4           0  0  0
    0.0000    0.0000    0.0000 Cl  0  0  0  0  0  1           0  0  0
    0.0000    0.0000    0.0000 C   0  0  0  0  0  4           0  0  0
    0.0000    0.0000    0.0000 C   0  0  0  0  0  4           0  0  0
    0.0000    0.0000    0.0000 O   0  0  0  0  0  2           0  0  0
    0.0000    0.0000    0.0000 O   0  0  0  0  0  2           0  0  0
    0.0000    0.0000    0.0000 O   0  0  0  0  0  2           0  0  0
    0.0000    0.0000    0.0000 C   0  0  0  0  0  4           0  0  0
    0.0000    0.0000    0.0000 C   0  0  0  0  0  4           0  0  0
  1  2  1  0     0  0
  2  3  1  0     0  0
  3  4  2  0     0  0
  4  5  1  0     0  0
  5  6  1  0     0  0
  6  7  1  0     0  0
  7  8  1  0     0  0
  2  9  2  0     0  0
  9 10  1  0     0  0
 10 11  1  0     0  0
 11 12  1  0     0  0
  4 13  1  0     0  0
  9 13  1  0     0  0
 13 14  1  0     0  0
 14 15  1  0     0  0
 15 16  2  0     0  0
 16 17  1  0     0  0
 17 18  2  0     0  0
 18 19  1  0     0  0
 19 20  1  0     0  0
 20 21  1  0     0  0
 21 22  2  0     0  0
 22 23  1  0     0  0
 22 24  1  0     0  0
 24 25  2  0     0  0
 25 26  1  0     0  0
 26 27  1  0     0  0
 21 28  1  0     0  0
 26 28  2  0     0  0
 28 29  1  0     0  0
 29 30  1  0     0  0
 29 31  2  0     0  0
 20 32  2  0     0  0
 18 33  1  0     0  0
 15 34  1  0     0  0
 33 34  2  0     0  0
M  END
> <Compound>
5

> <canonical_smiles>
ClC(N=C1CCCC)=C(COC)N1CC2=CC=C(NC(C3=C(Cl)C=CC(Cl)=C3C(O)=O)=O)C=C2

> <standard_type>
pIC50

> <standard_units>
nM

> <standard_relation>
=

> <actual_activity_value>
7.376750709602099

> <predicted_activity_value>
6.698970004336019

> <Publication_ID>
nan

$$$$
5
  CDPL    08252113263D 1   1.00000     0.00000

 28 30  0     0  0            999 V2000
    0.0000    0.0000    0.0000 Cl  0  0  0  0  0  1           0  0  0
    0.0000    0.0000    0.0000 C   0  0  0  0  0  4           0  0  0
    0.0000    0.0000    0.0000 N   0  0  0  0  0  3           0  0  0
    0.0000    0.0000    0.0000 C   0  0  0  0  0  4           0  0  0
    0.0000    0.0000    0.0000 C   0  0  0  0  0  4           0  0  0
    0.0000    0.0000    0.0000 C   0  0  0  0  0  4           0  0  0
    0.0000    0.0000    0.0000 C   0  0  0  0  0  4           0  0  0
    0.0000    0.0000    0.0000 C   0  0  0  0  0  4           0  0  0
    0.0000    0.0000    0.0000 C   0  0  0  0  0  4           0  0  0
    0.0000    0.0000    0.0000 C   0  0  0  0  0  4           0  0  0
    0.0000    0.0000    0.0000 O   0  0  0  0  0  2           0  0  0
    0.0000    0.0000    0.0000 N   0  0  0  0  0  3           0  0  0
    0.0000    0.0000    0.0000 C   0  0  0  0  0  4           0  0  0
    0.0000    0.0000    0.0000 C   0  0  0  0  0  4           0  0  0
    0.0000    0.0000    0.0000 C   0  0  0  0  0  4           0  0  0
    0.0000    0.0000    0.0000 C   0  0  0  0  0  4           0  0  0
    0.0000    0.0000    0.0000 C   0  0  0  0  0  4           0  0  0
    0.0000    0.0000    0.0000 C   0  0  0  0  0  4           0  0  0
    0.0000    0.0000    0.0000 C   0  0  0  0  0  4           0  0  0
    0.0000    0.0000    0.0000 C   0  0  0  0  0  4           0  0  0
    0.0000    0.0000    0.0000 C   0  0  0  0  0  4           0  0  0
    0.0000    0.0000    0.0000 C   0  0  0  0  0  4           0  0  0
    0.0000    0.0000    0.0000 C   0  0  0  0  0  4           0  0  0
    0.0000    0.0000    0.0000 C   0  0  0  0  0  4           0  0  0
    0.0000    0.0000    0.0000 O   0  0  0  0  0  2           0  0  0
    0.0000    0.0000    0.0000 O   0  0  0  0  0  2           0  0  0
    0.0000    0.0000    0.0000 C   0  0  0  0  0  4           0  0  0
    0.0000    0.0000    0.0000 C   0  0  0  0  0  4           0  0  0
  1  2  1  0     0  0
  2  3  1  0     0  0
  3  4  2  0     0  0
  4  5  1  0     0  0
  5  6  2  0     0  0
  6  7  1  0     0  0
  7  8  1  0     0  0
  2  9  2  0     0  0
  9 10  1  0     0  0
 10 11  1  0     0  0
  4 12  1  0     0  0
  9 12  1  0     0  0
 12 13  1  0     0  0
 13 14  1  0     0  0
 14 15  2  0     0  0
 15 16  1  0     0  0
 16 17  2  0     0  0
 17 18  1  0     0  0
 18 19  2  0     0  0
 19 20  1  0     0  0
 20 21  2  0     0  0
 21 22  1  0     0  0
 18 23  1  0     0  0
 22 23  2  0     0  0
 23 24  1  0     0  0
 24 25  1  0     0  0
 24 26  2  0     0  0
 17 27  1  0     0  0
 14 28  1  0     0  0
 27 28  2  0     0  0
M  END
> <Compound>
6

> <canonical_smiles>
ClC(N=C1/C=C/CC)=C(CO)N1CC2=CC=C(C3=CC=CC=C3C(O)=O)C=C2

> <standard_type>
pIC50

> <standard_units>
nM

> <standard_relation>
=

> <actual_activity_value>
7.096910013008056

> <predicted_activity_value>
7.0

> <Publication_ID>
nan

$$$$
6
  CDPL    08252113263D 1   1.00000     0.00000

 33 35  0     0  0            999 V2000
    0.0000    0.0000    0.0000 Cl  0  0  0  0  0  1           0  0  0
    0.0000    0.0000    0.0000 C   0  0  0  0  0  4           0  0  0
    0.0000    0.0000    0.0000 N   0  0  0  0  0  3           0  0  0
    0.0000    0.0000    0.0000 C   0  0  0  0  0  4           0  0  0
    0.0000    0.0000    0.0000 C   0  0  0  0  0  4           0  0  0
    0.0000    0.0000    0.0000 C   0  0  0  0  0  4           0  0  0
    0.0000    0.0000    0.0000 C   0  0  0  0  0  4           0  0  0
    0.0000    0.0000    0.0000 C   0  0  0  0  0  4           0  0  0
    0.0000    0.0000    0.0000 C   0  0  0  0  0  4           0  0  0
    0.0000    0.0000    0.0000 C   0  0  0  0  0  4           0  0  0
    0.0000    0.0000    0.0000 O   0  0  0  0  0  2           0  0  0
    0.0000    0.0000    0.0000 N   0  0  0  0  0  3           0  0  0
    0.0000    0.0000    0.0000 C   0  0  0  0  0  4           0  0  0
    0.0000    0.0000    0.0000 C   0  0  0  0  0  4           0  0  0
    0.0000    0.0000    0.0000 C   0  0  0  0  0  4           0  0  0
    0.0000    0.0000    0.0000 C   0  0  0  0  0  4           0  0  0
    0.0000    0.0000    0.0000 C   0  0  0  0  0  4           0  0  0
    0.0000    0.0000    0.0000 C   0  0  0  0  0  4           0  0  0
    0.0000    0.0000    0.0000 C   0  0  0  0  0  4           0  0  0
    0.0000    0.0000    0.0000 C   0  0  0  0  0  4           0  0  0
    0.0000    0.0000    0.0000 C   0  0  0  0  0  4           0  0  0
    0.0000    0.0000    0.0000 C   0  0  0  0  0  4           0  0  0
    0.0000    0.0000    0.0000 C   0  0  0  0  0  4           0  0  0
    0.0000    0.0000    0.0000 N   0  0  0  0  0  3           0  0  0
    0.0000    0.0000    0.0000 S   0  0  0  0  0  6           0  0  0
    0.0000    0.0000    0.0000 O   0  0  0  0  0  2           0  0  0
    0.0000    0.0000    0.0000 C   0  0  0  0  0  4           0  0  0
    0.0000    0.0000    0.0000 F   0  0  0  0  0  1           0  0  0
    0.0000    0.0000    0.0000 F   0  0  0  0  0  1           0  0  0
    0.0000    0.0000    0.0000 F   0  0  0  0  0  1           0  0  0
    0.0000    0.0000    0.0000 O   0  0  0  0  0  2           0  0  0
    0.0000    0.0000    0.0000 C   0  0  0  0  0  4           0  0  0
    0.0000    0.0000    0.0000 C   0  0  0  0  0  4           0  0  0
  1  2  1  0     0  0
  2  3  1  0     0  0
  3  4  2  0     0  0
  4  5  1  0     0  0
  5  6  1  0     0  0
  6  7  1  0     0  0
  7  8  1  0     0  0
  2  9  2  0     0  0
  9 10  1  0     0  0
 10 11  1  0     0  0
  4 12  1  0     0  0
  9 12  1  0     0  0
 12 13  1  0     0  0
 13 14  1  0     0  0
 14 15  2  0     0  0
 15 16  1  0     0  0
 16 17  2  0     0  0
 17 18  1  0     0  0
 18 19  2  0     0  0
 19 20  1  0     0  0
 20 21  2  0     0  0
 21 22  1  0     0  0
 18 23  1  0     0  0
 22 23  2  0     0  0
 23 24  1  0     0  0
 24 25  1  0     0  0
 25 26  2  0     0  0
 25 27  1  0     0  0
 27 28  1  0     0  0
 27 29  1  0     0  0
 27 30  1  0     0  0
 25 31  2  0     0  0
 17 32  1  0     0  0
 14 33  1  0     0  0
 32 33  2  0     0  0
M  END
> <Compound>
7

> <canonical_smiles>
ClC(N=C1CCCC)=C(CO)N1CC2=CC=C(C3=CC=CC=C3NS(=O)(C(F)(F)F)=O)C=C2

> <standard_type>
pIC50

> <standard_units>
nM

> <standard_relation>
=

> <actual_activity_value>
7.080921907623926

> <predicted_activity_value>
7.022276394711152

> <Publication_ID>
nan

$$$$
7
  CDPL    08252113263D 1   1.00000     0.00000

 29 31  0     0  0            999 V2000
    0.0000    0.0000    0.0000 Cl  0  0  0  0  0  1           0  0  0
    0.0000    0.0000    0.0000 C   0  0  0  0  0  4           0  0  0
    0.0000    0.0000    0.0000 N   0  0  0  0  0  3           0  0  0
    0.0000    0.0000    0.0000 C   0  0  0  0  0  4           0  0  0
    0.0000    0.0000    0.0000 C   0  0  0  0  0  4           0  0  0
    0.0000    0.0000    0.0000 C   0  0  0  0  0  4           0  0  0
    0.0000    0.0000    0.0000 C   0  0  0  0  0  4           0  0  0
    0.0000    0.0000    0.0000 C   0  0  0  0  0  4           0  0  0
    0.0000    0.0000    0.0000 C   0  0  0  0  0  4           0  0  0
    0.0000    0.0000    0.0000 C   0  0  0  0  0  4           0  0  0
    0.0000    0.0000    0.0000 O   0  0  0  0  0  2           0  0  0
    0.0000    0.0000    0.0000 C   0  0  0  0  0  4           0  0  0
    0.0000    0.0000    0.0000 N   0  0  0  0  0  3           0  0  0
    0.0000    0.0000    0.0000 C   0  0  0  0  0  4           0  0  0
    0.0000    0.0000    0.0000 C   0  0  0  0  0  4           0  0  0
    0.0000    0.0000    0.0000 C   0  0  0  0  0  4           0  0  0
    0.0000    0.0000    0.0000 C   0  0  0  0  0  4           0  0  0
    0.0000    0.0000    0.0000 C   0  0  0  0  0  4           0  0  0
    0.0000    0.0000    0.0000 C   0  0  0  0  0  4           0  0  0
    0.0000    0.0000    0.0000 C   0  0  0  0  0  4           0  0  0
    0.0000    0.0000    0.0000 C   0  0  0  0  0  4           0  0  0
    0.0000    0.0000    0.0000 C   0  0  0  0  0  4           0  0  0
    0.0000    0.0000    0.0000 C   0  0  0  0  0  4           0  0  0
    0.0000    0.0000    0.0000 C   0  0  0  0  0  4           0  0  0
    0.0000    0.0000    0.0000 C   0  0  0  0  0  4           0  0  0
    0.0000    0.0000    0.0000 O   0  0  0  0  0  2           0  0  0
    0.0000    0.0000    0.0000 O   0  0  0  0  0  2           0  0  0
    0.0000    0.0000    0.0000 C   0  0  0  0  0  4           0  0  0
    0.0000    0.0000    0.0000 C   0  0  0  0  0  4           0  0  0
  1  2  1  0     0  0
  2  3  1  0     0  0
  3  4  2  0     0  0
  4  5  1  0     0  0
  5  6  1  0     0  0
  6  7  1  0     0  0
  7  8  1  0     0  0
  2  9  2  0     0  0
  9 10  1  0     0  0
 10 11  1  0     0  0
 11 12  1  0     0  0
  4 13  1  0     0  0
  9 13  1  0     0  0
 13 14  1  0     0  0
 14 15  1  0     0  0
 15 16  2  0     0  0
 16 17  1  0     0  0
 17 18  2  0     0  0
 18 19  1  0     0  0
 19 20  2  0     0  0
 20 21  1  0     0  0
 21 22  2  0     0  0
 22 23  1  0     0  0
 19 24  1  0     0  0
 23 24  2  0     0  0
 24 25  1  0     0  0
 25 26  1  0     0  0
 25 27  2  0     0  0
 18 28  1  0     0  0
 15 29  1  0     0  0
 28 29  2  0     0  0
M  END
> <Compound>
8

> <canonical_smiles>
ClC(N=C1CCCC)=C(COC)N1CC2=CC=C(C3=CC=CC=C3C(O)=O)C=C2

> <standard_type>
pIC50

> <standard_units>
nM

> <standard_relation>
=

> <actual_activity_value>
7.00436480540245

> <predicted_activity_value>
6.920818753952375

> <Publication_ID>
nan

$$$$
8
  CDPL    08252113263D 1   1.00000     0.00000

 34 36  0     0  0            999 V2000
    0.0000    0.0000    0.0000 Cl  0  0  0  0  0  1           0  0  0
    0.0000    0.0000    0.0000 C   0  0  0  0  0  4           0  0  0
    0.0000    0.0000    0.0000 N   0  0  0  0  0  3           0  0  0
    0.0000    0.0000    0.0000 C   0  0  0  0  0  4           0  0  0
    0.0000    0.0000    0.0000 C   0  0  0  0  0  4           0  0  0
    0.0000    0.0000    0.0000 C   0  0  0  0  0  4           0  0  0
    0.0000    0.0000    0.0000 C   0  0  0  0  0  4           0  0  0
    0.0000    0.0000    0.0000 C   0  0  0  0  0  4           0  0  0
    0.0000    0.0000    0.0000 C   0  0  0  0  0  4           0  0  0
    0.0000    0.0000    0.0000 C   0  0  0  0  0  4           0  0  0
    0.0000    0.0000    0.0000 C   0  0  0  0  0  4           0  0  0
    0.0000    0.0000    0.0000 O   0  0  0  0  0  2           0  0  0
    0.0000    0.0000    0.0000 C   0  0  0  0  0  4           0  0  0
    0.0000    0.0000    0.0000 O   0  0  0  0  0  2           0  0  0
    0.0000    0.0000    0.0000 N   0  0  0  0  0  3           0  0  0
    0.0000    0.0000    0.0000 C   0  0  0  0  0  4           0  0  0
    0.0000    0.0000    0.0000 C   0  0  0  0  0  4           0  0  0
    0.0000    0.0000    0.0000 C   0  0  0  0  0  4           0  0  0
    0.0000    0.0000    0.0000 C   0  0  0  0  0  4           0  0  0
    0.0000    0.0000    0.0000 C   0  0  0  0  0  4           0  0  0
    0.0000    0.0000    0.0000 N   0  0  0  0  0  3           0  0  0
    0.0000    0.0000    0.0000 C   0  0  0  0  0  4           0  0  0
    0.0000    0.0000    0.0000 C   0  0  0  0  0  4           0  0  0
    0.0000    0.0000    0.0000 C   0  0  0  0  0  4           0  0  0
    0.0000    0.0000    0.0000 C   0  0  0  0  0  4           0  0  0
    0.0000    0.0000    0.0000 C   0  0  0  0  0  4           0  0  0
    0.0000    0.0000    0.0000 C   0  0  0  0  0  4           0  0  0
    0.0000    0.0000    0.0000 C   0  0  0  0  0  4           0  0  0
    0.0000    0.0000    0.0000 C   0  0  0  0  0  4           0  0  0
    0.0000    0.0000    0.0000 O   0  0  0  0  0  2           0  0  0
    0.0000    0.0000    0.0000 O   0  0  0  0  0  2           0  0  0
    0.0000    0.0000    0.0000 O   0  0  0  0  0  2           0  0  0
    0.0000    0.0000    0.0000 C   0  0  0  0  0  4           0  0  0
    0.0000    0.0000    0.0000 C   0  0  0  0  0  4           0  0  0
  1  2  1  0     0  0
  2  3  1  0     0  0
  3  4  2  0     0  0
  4  5  1  0     0  0
  5  6  1  0     0  0
  6  7  1  0     0  0
  7  8  1  0     0  0
  2  9  2  0     0  0
  9 10  1  0     0  0
 10 11  1  0     0  0
 11 12  1  0     0  0
 12 13  1  0     0  0
 11 14  2  0     0  0
  4 15  1  0     0  0
  9 15  1  0     0  0
 15 16  1  0     0  0
 16 17  1  0     0  0
 17 18  2  0     0  0
 18 19  1  0     0  0
 19 20  2  0     0  0
 20 21  1  0     0  0
 21 22  1  0     0  0
 22 23  1  0     0  0
 23 24  2  0     0  0
 24 25  1  0     0  0
 25 26  2  0     0  0
 26 27  1  0     0  0
 23 28  1  0     0  0
 27 28  2  0     0  0
 28 29  1  0     0  0
 29 30  1  0     0  0
 29 31  2  0     0  0
 22 32  2  0     0  0
 20 33  1  0     0  0
 17 34  1  0     0  0
 33 34  2  0     0  0
M  END
> <Compound>
9

> <canonical_smiles>
ClC(N=C1CCCC)=C(CC(OC)=O)N1CC2=CC=C(NC(C3=CC=CC=C3C(O)=O)=O)C=C2

> <standard_type>
pIC50

> <standard_units>
nM

> <standard_relation>
=

> <actual_activity_value>
6.853871964321762

> <predicted_activity_value>
5.468521082957745

> <Publication_ID>
nan

$$$$
9
  CDPL    08252113263D 1   1.00000     0.00000

 31 33  0     0  0            999 V2000
    0.0000    0.0000    0.0000 Cl  0  0  0  0  0  1           0  0  0
    0.0000    0.0000    0.0000 C   0  0  0  0  0  4           0  0  0
    0.0000    0.0000    0.0000 N   0  0  0  0  0  3           0  0  0
    0.0000    0.0000    0.0000 C   0  0  0  0  0  4           0  0  0
    0.0000    0.0000    0.0000 C   0  0  0  0  0  4           0  0  0
    0.0000    0.0000    0.0000 C   0  0  0  0  0  4           0  0  0
    0.0000    0.0000    0.0000 C   0  0  0  0  0  4           0  0  0
    0.0000    0.0000    0.0000 C   0  0  0  0  0  4           0  0  0
    0.0000    0.0000    0.0000 C   0  0  0  0  0  4           0  0  0
    0.0000    0.0000    0.0000 C   0  0  0  0  0  4           0  0  0
    0.0000    0.0000    0.0000 O   0  0  0  0  0  2           0  0  0
    0.0000    0.0000    0.0000 C   0  0  0  0  0  4           0  0  0
    0.0000    0.0000    0.0000 N   0  0  0  0  0  3           0  0  0
    0.0000    0.0000    0.0000 C   0  0  0  0  0  4           0  0  0
    0.0000    0.0000    0.0000 C   0  0  0  0  0  4           0  0  0
    0.0000    0.0000    0.0000 C   0  0  0  0  0  4           0  0  0
    0.0000    0.0000    0.0000 C   0  0  0  0  0  4           0  0  0
    0.0000    0.0000    0.0000 C   0  0  0  0  0  4           0  0  0
    0.0000    0.0000    0.0000 C   0  0  0  0  0  4           0  0  0
    0.0000    0.0000    0.0000 C   0  0  0  0  0  4           0  0  0
    0.0000    0.0000    0.0000 C   0  0  0  0  0  4           0  0  0
    0.0000    0.0000    0.0000 C   0  0  0  0  0  4           0  0  0
    0.0000    0.0000    0.0000 C   0  0  0  0  0  4           0  0  0
    0.0000    0.0000    0.0000 C   0  0  0  0  0  4           0  0  0
    0.0000    0.0000    0.0000 C   0  0  0  0  0  4           0  0  0
    0.0000    0.0000    0.0000 C   0  0  0  0  0  4           0  0  0
    0.0000    0.0000    0.0000 C   0  0  0  0  0  4           0  0  0
    0.0000    0.0000    0.0000 O   0  0  0  0  0  2           0  0  0
    0.0000    0.0000    0.0000 O   0  0  0  0  0  2           0  0  0
    0.0000    0.0000    0.0000 O   0  0  0  0  0  2           0  0  0
    0.0000    0.0000    0.0000 C   0  0  0  0  0  4           0  0  0
  1  2  1  0     0  0
  2  3  1  0     0  0
  3  4  2  0     0  0
  4  5  1  0     0  0
  5  6  1  0     0  0
  6  7  1  0     0  0
  7  8  1  0     0  0
  2  9  2  0     0  0
  9 10  1  0     0  0
 10 11  1  0     0  0
 11 12  1  0     0  0
  4 13  1  0     0  0
  9 13  1  0     0  0
 13 14  1  0     0  0
 14 15  1  0     0  0
 15 16  2  0     0  0
 16 17  1  0     0  0
 17 18  2  0     0  0
 18 19  1  0     0  0
 19 20  1  0     0  0
 20 21  1  0     0  0
 21 22  2  0     0  0
 22 23  1  0     0  0
 23 24  2  0     0  0
 24 25  1  0     0  0
 21 26  1  0     0  0
 25 26  2  0     0  0
 26 27  1  0     0  0
 27 28  1  0     0  0
 27 29  2  0     0  0
 20 30  2  0     0  0
 15 31  1  0     0  0
 19 31  2  0     0  0
M  END
> <Compound>
10

> <canonical_smiles>
ClC(N=C1CCCC)=C(COC)N1CC2=CC=CC(C(C3=CC=CC=C3C(O)=O)=O)=C2

> <standard_type>
pIC50

> <standard_units>
nM

> <standard_relation>
=

> <actual_activity_value>
6.823908740944319

> <predicted_activity_value>
6.958607314841775

> <Publication_ID>
nan

$$$$
10
  CDPL    08252113263D 1   1.00000     0.00000

 30 32  0     0  0            999 V2000
    0.0000    0.0000    0.0000 Cl  0  0  0  0  0  1           0  0  0
    0.0000    0.0000    0.0000 C   0  0  0  0  0  4           0  0  0
    0.0000    0.0000    0.0000 N   0  0  0  0  0  3           0  0  0
    0.0000    0.0000    0.0000 C   0  0  0  0  0  4           0  0  0
    0.0000    0.0000    0.0000 C   0  0  0  0  0  4           0  0  0
    0.0000    0.0000    0.0000 C   0  0  0  0  0  4           0  0  0
    0.0000    0.0000    0.0000 C   0  0  0  0  0  4           0  0  0
    0.0000    0.0000    0.0000 C   0  0  0  0  0  4           0  0  0
    0.0000    0.0000    0.0000 C   0  0  0  0  0  4           0  0  0
    0.0000    0.0000    0.0000 C   0  0  0  0  0  4           0  0  0
    0.0000    0.0000    0.0000 O   0  0  0  0  0  2           0  0  0
    0.0000    0.0000    0.0000 N   0  0  0  0  0  3           0  0  0
    0.0000    0.0000    0.0000 C   0  0  0  0  0  4           0  0  0
    0.0000    0.0000    0.0000 C   0  0  0  0  0  4           0  0  0
    0.0000    0.0000    0.0000 C   0  0  0  0  0  4           0  0  0
    0.0000    0.0000    0.0000 C   0  0  0  0  0  4           0  0  0
    0.0000    0.0000    0.0000 C   0  0  0  0  0  4           0  0  0
    0.0000    0.0000    0.0000 C   0  0  0  0  0  4           0  0  0
    0.0000    0.0000    0.0000 C   0  0  0  0  0  4           0  0  0
    0.0000    0.0000    0.0000 C   0  0  0  0  0  4           0  0  0
    0.0000    0.0000    0.0000 C   0  0  0  0  0  4           0  0  0
    0.0000    0.0000    0.0000 C   0  0  0  0  0  4           0  0  0
    0.0000    0.0000    0.0000 C   0  0  0  0  0  4           0  0  0
    0.0000    0.0000    0.0000 C   0  0  0  0  0  4           0  0  0
    0.0000    0.0000    0.0000 C   0  0  0  0  0  4           0  0  0
    0.0000    0.0000    0.0000 C   0  0  0  0  0  4           0  0  0
    0.0000    0.0000    0.0000 O   0  0  0  0  0  2           0  0  0
    0.0000    0.0000    0.0000 O   0  0  0  0  0  2           0  0  0
    0.0000    0.0000    0.0000 O   0  0  0  0  0  2           0  0  0
    0.0000    0.0000    0.0000 C   0  0  0  0  0  4           0  0  0
  1  2  1  0     0  0
  2  3  1  0     0  0
  3  4  2  0     0  0
  4  5  1  0     0  0
  5  6  1  0     0  0
  6  7  1  0     0  0
  7  8  1  0     0  0
  2  9  2  0     0  0
  9 10  1  0     0  0
 10 11  1  0     0  0
  4 12  1  0     0  0
  9 12  1  0     0  0
 12 13  1  0     0  0
 13 14  1  0     0  0
 14 15  2  0     0  0
 15 16  1  0     0  0
 16 17  2  0     0  0
 17 18  1  0     0  0
 18 19  1  0     0  0
 19 20  1  0     0  0
 20 21  2  0     0  0
 21 22  1  0     0  0
 22 23  2  0     0  0
 23 24  1  0     0  0
 20 25  1  0     0  0
 24 25  2  0     0  0
 25 26  1  0     0  0
 26 27  1  0     0  0
 26 28  2  0     0  0
 19 29  2  0     0  0
 14 30  1  0     0  0
 18 30  2  0     0  0
M  END
> <Compound>
11

> <canonical_smiles>
ClC(N=C1CCCC)=C(CO)N1CC2=CC=CC(C(C3=CC=CC=C3C(O)=O)=O)=C2

> <standard_type>
pIC50

> <standard_units>
nM

> <standard_relation>
=

> <actual_activity_value>
6.468521082957745

> <predicted_activity_value>
5.721246399047171

> <Publication_ID>
nan

$$$$
11
  CDPL    08252113263D 1   1.00000     0.00000

 29 31  0     0  0            999 V2000
    0.0000    0.0000    0.0000 Cl  0  0  0  0  0  1           0  0  0
    0.0000    0.0000    0.0000 C   0  0  0  0  0  4           0  0  0
    0.0000    0.0000    0.0000 N   0  0  0  0  0  3           0  0  0
    0.0000    0.0000    0.0000 C   0  0  0  0  0  4           0  0  0
    0.0000    0.0000    0.0000 C   0  0  0  0  0  4           0  0  0
    0.0000    0.0000    0.0000 C   0  0  0  0  0  4           0  0  0
    0.0000    0.0000    0.0000 C   0  0  0  0  0  4           0  0  0
    0.0000    0.0000    0.0000 C   0  0  0  0  0  4           0  0  0
    0.0000    0.0000    0.0000 C   0  0  0  0  0  4           0  0  0
    0.0000    0.0000    0.0000 C   0  0  0  0  0  4           0  0  0
    0.0000    0.0000    0.0000 O   0  0  0  0  0  2           0  0  0
    0.0000    0.0000    0.0000 N   0  0  0  0  0  3           0  0  0
    0.0000    0.0000    0.0000 C   0  0  0  0  0  4           0  0  0
    0.0000    0.0000    0.0000 C   0  0  0  0  0  4           0  0  0
    0.0000    0.0000    0.0000 C   0  0  0  0  0  4           0  0  0
    0.0000    0.0000    0.0000 C   0  0  0  0  0  4           0  0  0
    0.0000    0.0000    0.0000 C   0  0  0  0  0  4           0  0  0
    0.0000    0.0000    0.0000 C   0  0  0  0  0  4           0  0  0
    0.0000    0.0000    0.0000 O   0  0  0  0  0  2           0  0  0
    0.0000    0.0000    0.0000 C   0  0  0  0  0  4           0  0  0
    0.0000    0.0000    0.0000 C   0  0  0  0  0  4           0  0  0
    0.0000    0.0000    0.0000 C   0  0  0  0  0  4           0  0  0
    0.0000    0.0000    0.0000 C   0  0  0  0  0  4           0  0  0
    0.0000    0.0000    0.0000 C   0  0  0  0  0  4           0  0  0
    0.0000    0.0000    0.0000 C   0  0  0  0  0  4           0  0  0
    0.0000    0.0000    0.0000 C   0  0  0  0  0  4           0  0  0
    0.0000    0.0000    0.0000 O   0  0  0  0  0  2           0  0  0
    0.0000    0.0000    0.0000 O   0  0  0  0  0  2           0  0  0
    0.0000    0.0000    0.0000 C   0  0  0  0  0  4           0  0  0
  1  2  1  0     0  0
  2  3  1  0     0  0
  3  4  2  0     0  0
  4  5  1  0     0  0
  5  6  1  0     0  0
  6  7  1  0     0  0
  7  8  1  0     0  0
  2  9  2  0     0  0
  9 10  1  0     0  0
 10 11  1  0     0  0
  4 12  1  0     0  0
  9 12  1  0     0  0
 12 13  1  0     0  0
 13 14  1  0     0  0
 14 15  2  0     0  0
 15 16  1  0     0  0
 16 17  2  0     0  0
 17 18  1  0     0  0
 18 19  1  0     0  0
 19 20  1  0     0  0
 20 21  2  0     0  0
 21 22  1  0     0  0
 22 23  2  0     0  0
 23 24  1  0     0  0
 20 25  1  0     0  0
 24 25  2  0     0  0
 25 26  1  0     0  0
 26 27  1  0     0  0
 26 28  2  0     0  0
 14 29  1  0     0  0
 18 29  2  0     0  0
M  END
> <Compound>
12

> <canonical_smiles>
ClC(N=C1CCCC)=C(CO)N1CC2=CC=CC(OC3=CC=CC=C3C(O)=O)=C2

> <standard_type>
pIC50

> <standard_units>
nM

> <standard_relation>
=

> <actual_activity_value>
6.3979400086720375

> <predicted_activity_value>
7.3979400086720375

> <Publication_ID>
nan

$$$$
12
  CDPL    08252113263D 1   1.00000     0.00000

 39 41  0     0  0            999 V2000
    0.0000    0.0000    0.0000 Cl  0  0  0  0  0  1           0  0  0
    0.0000    0.0000    0.0000 C   0  0  0  0  0  4           0  0  0
    0.0000    0.0000    0.0000 N   0  0  0  0  0  3           0  0  0
    0.0000    0.0000    0.0000 C   0  0  0  0  0  4           0  0  0
    0.0000    0.0000    0.0000 C   0  0  0  0  0  4           0  0  0
    0.0000    0.0000    0.0000 C   0  0  0  0  0  4           0  0  0
    0.0000    0.0000    0.0000 C   0  0  0  0  0  4           0  0  0
    0.0000    0.0000    0.0000 C   0  0  0  0  0  4           0  0  0
    0.0000    0.0000    0.0000 C   0  0  0  0  0  4           0  0  0
    0.0000    0.0000    0.0000 C   0  0  0  0  0  4           0  0  0
    0.0000    0.0000    0.0000 C   0  0  0  0  0  4           0  0  0
    0.0000    0.0000    0.0000 O   0  0  0  0  0  2           0  0  0
    0.0000    0.0000    0.0000 C   0  0  0  0  0  4           0  0  0
    0.0000    0.0000    0.0000 O   0  0  0  0  0  2           0  0  0
    0.0000    0.0000    0.0000 N   0  0  0  0  0  3           0  0  0
    0.0000    0.0000    0.0000 C   0  0  0  0  0  4           0  0  0
    0.0000    0.0000    0.0000 C   0  0  0  0  0  4           0  0  0
    0.0000    0.0000    0.0000 C   0  0  0  0  0  4           0  0  0
    0.0000    0.0000    0.0000 C   0  0  0  0  0  4           0  0  0
    0.0000    0.0000    0.0000 C   0  0  0  0  0  4           0  0  0
    0.0000    0.0000    0.0000 N   0  0  0  0  0  3           0  0  0
    0.0000    0.0000    0.0000 C   0  0  0  0  0  4           0  0  0
    0.0000    0.0000    0.0000 C   0  0  0  0  0  4           0  0  0
    0.0000    0.0000    0.0000 C   0  0  0  0  0  4           0  0  0
    0.0000    0.0000    0.0000 C   0  0  0  0  0  4           0  0  0
    0.0000    0.0000    0.0000 C   0  0  0  0  0  4           0  0  0
    0.0000    0.0000    0.0000 C   0  0  0  0  0  4           0  0  0
    0.0000    0.0000    0.0000 C   0  0  0  0  0  4           0  0  0
    0.0000    0.0000    0.0000 N   0  0  0  0  0  3           0  0  0
    0.0000    0.0000    0.0000 S   0  0  0  0  0  6           0  0  0
    0.0000    0.0000    0.0000 O   0  0  0  0  0  2           0  0  0
    0.0000    0.0000    0.0000 C   0  0  0  0  0  4           0  0  0
    0.0000    0.0000    0.0000 F   0  0  0  0  0  1           0  0  0
    0.0000    0.0000    0.0000 F   0  0  0  0  0  1           0  0  0
    0.0000    0.0000    0.0000 F   0  0  0  0  0  1           0  0  0
    0.0000    0.0000    0.0000 O   0  0  0  0  0  2           0  0  0
    0.0000    0.0000    0.0000 O   0  0  0  0  0  2           0  0  0
    0.0000    0.0000    0.0000 C   0  0  0  0  0  4           0  0  0
    0.0000    0.0000    0.0000 C   0  0  0  0  0  4           0  0  0
  1  2  1  0     0  0
  2  3  1  0     0  0
  3  4  2  0     0  0
  4  5  1  0     0  0
  5  6  1  0     0  0
  6  7  1  0     0  0
  7  8  1  0     0  0
  2  9  2  0     0  0
  9 10  1  0     0  0
 10 11  1  0     0  0
 11 12  1  0     0  0
 12 13  1  0     0  0
 11 14  2  0     0  0
  4 15  1  0     0  0
  9 15  1  0     0  0
 15 16  1  0     0  0
 16 17  1  0     0  0
 17 18  2  0     0  0
 18 19  1  0     0  0
 19 20  2  0     0  0
 20 21  1  0     0  0
 21 22  1  0     0  0
 22 23  1  0     0  0
 23 24  2  0     0  0
 24 25  1  0     0  0
 25 26  2  0     0  0
 26 27  1  0     0  0
 23 28  1  0     0  0
 27 28  2  0     0  0
 28 29  1  0     0  0
 29 30  1  0     0  0
 30 31  2  0     0  0
 30 32  1  0     0  0
 32 33  1  0     0  0
 32 34  1  0     0  0
 32 35  1  0     0  0
 30 36  2  0     0  0
 22 37  2  0     0  0
 20 38  1  0     0  0
 17 39  1  0     0  0
 38 39  2  0     0  0
M  END
> <Compound>
13

> <canonical_smiles>
ClC(N=C1CCCC)=C(CC(OC)=O)N1CC2=CC=C(NC(C3=CC=CC=C3NS(=O)(C(F)(F)F)=O)=O)C=C2

> <standard_type>
pIC50

> <standard_units>
nM

> <standard_relation>
=

> <actual_activity_value>
6.301029995663981

> <predicted_activity_value>
5.337242168318426

> <Publication_ID>
nan

$$$$
13
  CDPL    08252113263D 1   1.00000     0.00000

 30 32  0     0  0            999 V2000
    0.0000    0.0000    0.0000 Cl  0  0  0  0  0  1           0  0  0
    0.0000    0.0000    0.0000 C   0  0  0  0  0  4           0  0  0
    0.0000    0.0000    0.0000 N   0  0  0  0  0  3           0  0  0
    0.0000    0.0000    0.0000 C   0  0  0  0  0  4           0  0  0
    0.0000    0.0000    0.0000 C   0  0  0  0  0  4           0  0  0
    0.0000    0.0000    0.0000 C   0  0  0  0  0  4           0  0  0
    0.0000    0.0000    0.0000 C   0  0  0  0  0  4           0  0  0
    0.0000    0.0000    0.0000 C   0  0  0  0  0  4           0  0  0
    0.0000    0.0000    0.0000 C   0  0  0  0  0  4           0  0  0
    0.0000    0.0000    0.0000 C   0  0  0  0  0  4           0  0  0
    0.0000    0.0000    0.0000 O   0  0  0  0  0  2           0  0  0
    0.0000    0.0000    0.0000 N   0  0  0  0  0  3           0  0  0
    0.0000    0.0000    0.0000 C   0  0  0  0  0  4           0  0  0
    0.0000    0.0000    0.0000 C   0  0  0  0  0  4           0  0  0
    0.0000    0.0000    0.0000 C   0  0  0  0  0  4           0  0  0
    0.0000    0.0000    0.0000 C   0  0  0  0  0  4           0  0  0
    0.0000    0.0000    0.0000 C   0  0  0  0  0  4           0  0  0
    0.0000    0.0000    0.0000 O   0  0  0  0  0  2           0  0  0
    0.0000    0.0000    0.0000 C   0  0  0  0  0  4           0  0  0
    0.0000    0.0000    0.0000 C   0  0  0  0  0  4           0  0  0
    0.0000    0.0000    0.0000 C   0  0  0  0  0  4           0  0  0
    0.0000    0.0000    0.0000 C   0  0  0  0  0  4           0  0  0
    0.0000    0.0000    0.0000 C   0  0  0  0  0  4           0  0  0
    0.0000    0.0000    0.0000 C   0  0  0  0  0  4           0  0  0
    0.0000    0.0000    0.0000 C   0  0  0  0  0  4           0  0  0
    0.0000    0.0000    0.0000 C   0  0  0  0  0  4           0  0  0
    0.0000    0.0000    0.0000 O   0  0  0  0  0  2           0  0  0
    0.0000    0.0000    0.0000 O   0  0  0  0  0  2           0  0  0
    0.0000    0.0000    0.0000 C   0  0  0  0  0  4           0  0  0
    0.0000    0.0000    0.0000 C   0  0  0  0  0  4           0  0  0
  1  2  1  0     0  0
  2  3  1  0     0  0
  3  4  2  0     0  0
  4  5  1  0     0  0
  5  6  1  0     0  0
  6  7  1  0     0  0
  7  8  1  0     0  0
  2  9  2  0     0  0
  9 10  1  0     0  0
 10 11  1  0     0  0
  4 12  1  0     0  0
  9 12  1  0     0  0
 12 13  1  0     0  0
 13 14  1  0     0  0
 14 15  2  0     0  0
 15 16  1  0     0  0
 16 17  2  0     0  0
 17 18  1  0     0  0
 18 19  1  0     0  0
 19 20  1  0     0  0
 20 21  2  0     0  0
 21 22  1  0     0  0
 22 23  2  0     0  0
 23 24  1  0     0  0
 20 25  1  0     0  0
 24 25  2  0     0  0
 25 26  1  0     0  0
 26 27  1  0     0  0
 26 28  2  0     0  0
 17 29  1  0     0  0
 14 30  1  0     0  0
 29 30  2  0     0  0
M  END
> <Compound>
14

> <canonical_smiles>
ClC(N=C1CCCC)=C(CO)N1CC2=CC=C(OCC3=CC=CC=C3C(O)=O)C=C2

> <standard_type>
pIC50

> <standard_units>
nM

> <standard_relation>
=

> <actual_activity_value>
6.036212172654444

> <predicted_activity_value>
5.920818753952375

> <Publication_ID>
nan

$$$$
14
  CDPL    08252113263D 1   1.00000     0.00000

 28 31  0     0  0            999 V2000
    0.0000    0.0000    0.0000 Cl  0  0  0  0  0  1           0  0  0
    0.0000    0.0000    0.0000 C   0  0  0  0  0  4           0  0  0
    0.0000    0.0000    0.0000 N   0  0  0  0  0  3           0  0  0
    0.0000    0.0000    0.0000 C   0  0  0  0  0  4           0  0  0
    0.0000    0.0000    0.0000 C   0  0  0  0  0  4           0  0  0
    0.0000    0.0000    0.0000 C   0  0  0  0  0  4           0  0  0
    0.0000    0.0000    0.0000 C   0  0  0  0  0  4           0  0  0
    0.0000    0.0000    0.0000 C   0  0  0  0  0  4           0  0  0
    0.0000    0.0000    0.0000 C   0  0  0  0  0  4           0  0  0
    0.0000    0.0000    0.0000 C   0  0  0  0  0  4           0  0  0
    0.0000    0.0000    0.0000 C   0  0  0  0  0  4           0  0  0
    0.0000    0.0000    0.0000 N   0  0  0  0  0  3           0  0  0
    0.0000    0.0000    0.0000 N   0  0  0  0  0  3           0  0  0
    0.0000    0.0000    0.0000 N   0  0  0  0  0  3           0  0  0
    0.0000    0.0000    0.0000 N   0  0  0  0  0  3           0  0  0
    0.0000    0.0000    0.0000 N   0  0  0  0  0  3           0  0  0
    0.0000    0.0000    0.0000 C   0  0  0  0  0  4           0  0  0
    0.0000    0.0000    0.0000 C   0  0  0  0  0  4           0  0  0
    0.0000    0.0000    0.0000 C   0  0  0  0  0  4           0  0  0
    0.0000    0.0000    0.0000 C   0  0  0  0  0  4           0  0  0
    0.0000    0.0000    0.0000 C   0  0  0  0  0  4           0  0  0
    0.0000    0.0000    0.0000 C   0  0  0  0  0  4           0  0  0
    0.0000    0.0000    0.0000 C   0  0  0  0  0  4           0  0  0
    0.0000    0.0000    0.0000 C   0  0  0  0  0  4           0  0  0
    0.0000    0.0000    0.0000 N   0  0  0  0  0  3           0  0  0
    0.0000    0.0000    0.0000 N   0  0  0  0  0  3           0  0  0
    0.0000    0.0000    0.0000 N   0  0  0  0  0  3           0  0  0
    0.0000    0.0000    0.0000 N   0  0  0  0  0  3           0  0  0
  1  2  1  0     0  0
  2  3  1  0     0  0
  3  4  2  0     0  0
  4  5  1  0     0  0
  5  6  1  0     0  0
  6  7  1  0     0  0
  7  8  1  0     0  0
  2  9  2  0     0  0
  9 10  1  0     0  0
 10 11  1  0     0  0
 11 12  2  0     0  0
 12 13  1  0     0  0
 13 14  2  0     0  0
 11 15  1  0     0  0
 14 15  1  0     0  0
  4 16  1  0     0  0
  9 16  1  0     0  0
 16 17  1  0     0  0
 17 18  1  0     0  0
 18 19  2  0     0  0
 19 20  1  0     0  0
 20 21  2  0     0  0
 21 22  1  0     0  0
 18 23  1  0     0  0
 22 23  2  0     0  0
 23 24  1  0     0  0
 24 25  2  0     0  0
 25 26  1  0     0  0
 26 27  2  0     0  0
 24 28  1  0     0  0
 27 28  1  0     0  0
M  END
> <Compound>
15

> <canonical_smiles>
ClC(N=C1CCCC)=C(CC2=NN=NN2)N1CC3=CC=CC=C3C4=NN=NN4

> <standard_type>
pIC50

> <standard_units>
nM

> <standard_relation>
=

> <actual_activity_value>
5.920818753952375

> <predicted_activity_value>
5.0

> <Publication_ID>
nan

$$$$
15
  CDPL    08252113263D 1   1.00000     0.00000

 38 40  0     0  0            999 V2000
    0.0000    0.0000    0.0000 C   0  0  0  0  0  4           0  0  0
    0.0000    0.0000    0.0000 C   0  0  0  0  0  4           0  0  0
    0.0000    0.0000    0.0000 C   0  0  0  0  0  4           0  0  0
    0.0000    0.0000    0.0000 C   0  0  0  0  0  4           0  0  0
    0.0000    0.0000    0.0000 C   0  0  0  0  0  4           0  0  0
    0.0000    0.0000    0.0000 N   0  0  0  0  0  3           0  0  0
    0.0000    0.0000    0.0000 C   0  0  0  0  0  4           0  0  0
    0.0000    0.0000    0.0000 Cl  0  0  0  0  0  1           0  0  0
    0.0000    0.0000    0.0000 C   0  0  0  0  0  4           0  0  0
    0.0000    0.0000    0.0000 C   0  0  0  0  0  4           0  0  0
    0.0000    0.0000    0.0000 O   0  0  0  0  0  2           0  0  0
    0.0000    0.0000    0.0000 C   0  0  0  0  0  4           0  0  0
    0.0000    0.0000    0.0000 N   0  0  0  0  0  3           0  0  0
    0.0000    0.0000    0.0000 C   0  0  0  0  0  4           0  0  0
    0.0000    0.0000    0.0000 C   0  0  0  0  0  4           0  0  0
    0.0000    0.0000    0.0000 C   0  0  0  0  0  4           0  0  0
    0.0000    0.0000    0.0000 C   0  0  0  0  0  4           0  0  0
    0.0000    0.0000    0.0000 C   0  0  0  0  0  4           0  0  0
    0.0000    0.0000    0.0000 N   0  0  0  0  0  3           0  0  0
    0.0000    0.0000    0.0000 C   0  0  0  0  0  4           0  0  0
    0.0000    0.0000    0.0000 N   0  0  0  0  0  3           0  0  0
    0.0000    0.0000    0.0000 C   0  0  0  0  0  4           0  0  0
    0.0000    0.0000    0.0000 C   0  0  0  0  0  4           0  0  0
    0.0000    0.0000    0.0000 C   0  0  0  0  0  4           0  0  0
    0.0000    0.0000    0.0000 C   0  0  0  0  0  4           0  0  0
    0.0000    0.0000    0.0000 C   0  0  0  0  0  4           0  0  0
    0.0000    0.0000    0.0000 C   0  0  0  0  0  4           0  0  0
    0.0000    0.0000    0.0000 N   0  0  0  0  0  3           0  0  0
    0.0000    0.0000    0.0000 S   0  0  0  0  0  6           0  0  0
    0.0000    0.0000    0.0000 C   0  0  0  0  0  4           0  0  0
    0.0000    0.0000    0.0000 F   0  0  0  0  0  1           0  0  0
    0.0000    0.0000    0.0000 F   0  0  0  0  0  1           0  0  0
    0.0000    0.0000    0.0000 F   0  0  0  0  0  1           0  0  0
    0.0000    0.0000    0.0000 O   0  0  0  0  0  2           0  0  0
    0.0000    0.0000    0.0000 O   0  0  0  0  0  2           0  0  0
    0.0000    0.0000    0.0000 O   0  0  0  0  0  2           0  0  0
    0.0000    0.0000    0.0000 C   0  0  0  0  0  4           0  0  0
    0.0000    0.0000    0.0000 C   0  0  0  0  0  4           0  0  0
  1  2  1  0     0  0
  2  3  1  0     0  0
  3  4  1  0     0  0
  4  5  1  0     0  0
  5  6  2  0     0  0
  6  7  1  0     0  0
  7  8  1  0     0  0
  7  9  2  0     0  0
  9 10  1  0     0  0
 10 11  1  0     0  0
 11 12  1  0     0  0
  5 13  1  0     0  0
  9 13  1  0     0  0
 13 14  1  0     0  0
 14 15  1  0     0  0
 15 16  2  0     0  0
 16 17  1  0     0  0
 17 18  2  0     0  0
 18 19  1  0     0  0
 19 20  1  0     0  0
 20 21  1  0     0  0
 21 22  1  0     0  0
 22 23  2  0     0  0
 23 24  1  0     0  0
 24 25  2  0     0  0
 25 26  1  0     0  0
 22 27  1  0     0  0
 26 27  2  0     0  0
 27 28  1  0     0  0
 28 29  1  0     0  0
 29 30  1  0     0  0
 30 31  1  0     0  0
 30 32  1  0     0  0
 30 33  1  0     0  0
 29 34  2  0     0  0
 29 35  2  0     0  0
 20 36  2  0     0  0
 18 37  1  0     0  0
 15 38  1  0     0  0
 37 38  2  0     0  0
M  END
> <Compound>
16

> <canonical_smiles>
CCCCC1=NC(Cl)=C(COC)N1CC2=CC=C(NC(NC3=CC=CC=C3NS(C(F)(F)F)(=O)=O)=O)C=C2

> <standard_type>
pIC50

> <standard_units>
nM

> <standard_relation>
=

> <actual_activity_value>
5.619788758288394

> <predicted_activity_value>
5.0

> <Publication_ID>
nan

$$$$
16
  CDPL    08252113263D 1   1.00000     0.00000

 34 36  0     0  0            999 V2000
    0.0000    0.0000    0.0000 O   0  0  0  0  0  2           0  0  0
    0.0000    0.0000    0.0000 C   0  0  0  0  0  4           0  0  0
    0.0000    0.0000    0.0000 C   0  0  0  0  0  4           0  0  0
    0.0000    0.0000    0.0000 C   0  0  0  0  0  4           0  0  0
    0.0000    0.0000    0.0000 C   0  0  0  0  0  4           0  0  0
    0.0000    0.0000    0.0000 C   0  0  0  0  0  4           0  0  0
    0.0000    0.0000    0.0000 C   0  0  0  0  0  4           0  0  0
    0.0000    0.0000    0.0000 C   0  0  0  0  0  4           0  0  0
    0.0000    0.0000    0.0000 C   0  0  0  0  0  4           0  0  0
    0.0000    0.0000    0.0000 C   0  0  0  0  0  4           0  0  0
    0.0000    0.0000    0.0000 C   0  0  0  0  0  4           0  0  0
    0.0000    0.0000    0.0000 O   0  0  0  0  0  2           0  0  0
    0.0000    0.0000    0.0000 O   0  0  0  0  0  2           0  0  0
    0.0000    0.0000    0.0000 N   0  0  0  0  0  3           0  0  0
    0.0000    0.0000    0.0000 C   0  0  0  0  0  4           0  0  0
    0.0000    0.0000    0.0000 C   0  0  0  0  0  4           0  0  0
    0.0000    0.0000    0.0000 C   0  0  0  0  0  4           0  0  0
    0.0000    0.0000    0.0000 C   0  0  0  0  0  4           0  0  0
    0.0000    0.0000    0.0000 C   0  0  0  0  0  4           0  0  0
    0.0000    0.0000    0.0000 N   0  0  0  0  0  3           0  0  0
    0.0000    0.0000    0.0000 C   0  0  0  0  0  4           0  0  0
    0.0000    0.0000    0.0000 C   0  0  0  0  0  4           0  0  0
    0.0000    0.0000    0.0000 O   0  0  0  0  0  2           0  0  0
    0.0000    0.0000    0.0000 C   0  0  0  0  0  4           0  0  0
    0.0000    0.0000    0.0000 C   0  0  0  0  0  4           0  0  0
    0.0000    0.0000    0.0000 Cl  0  0  0  0  0  1           0  0  0
    0.0000    0.0000    0.0000 N   0  0  0  0  0  3           0  0  0
    0.0000    0.0000    0.0000 C   0  0  0  0  0  4           0  0  0
    0.0000    0.0000    0.0000 C   0  0  0  0  0  4           0  0  0
    0.0000    0.0000    0.0000 C   0  0  0  0  0  4           0  0  0
    0.0000    0.0000    0.0000 C   0  0  0  0  0  4           0  0  0
    0.0000    0.0000    0.0000 C   0  0  0  0  0  4           0  0  0
    0.0000    0.0000    0.0000 C   0  0  0  0  0  4           0  0  0
    0.0000    0.0000    0.0000 C   0  0  0  0  0  4           0  0  0
  1  2  2  0     0  0
  2  3  1  0     0  0
  3  4  1  0     0  0
  4  5  2  0     0  0
  5  6  1  0     0  0
  6  7  2  0     0  0
  7  8  1  0     0  0
  4  9  1  0     0  0
  8  9  2  0     0  0
  9 10  1  0     0  0
 10 11  1  0     0  0
 11 12  1  0     0  0
 11 13  2  0     0  0
  2 14  1  0     0  0
 14 15  1  0     0  0
 15 16  2  0     0  0
 16 17  1  0     0  0
 17 18  2  0     0  0
 18 19  1  0     0  0
 19 20  1  0     0  0
 20 21  1  0     0  0
 21 22  1  0     0  0
 22 23  1  0     0  0
 23 24  1  0     0  0
 21 25  2  0     0  0
 25 26  1  0     0  0
 25 27  1  0     0  0
 20 28  1  0     0  0
 27 28  2  0     0  0
 28 29  1  0     0  0
 29 30  1  0     0  0
 30 31  1  0     0  0
 31 32  1  0     0  0
 18 33  1  0     0  0
 15 34  1  0     0  0
 33 34  2  0     0  0
M  END
> <Compound>
17

> <canonical_smiles>
O=C(CC1=CC=CC=C1CC(O)=O)NC2=CC=C(CN3C(COC)=C(Cl)N=C3CCCC)C=C2

> <standard_type>
pIC50

> <standard_units>
nM

> <standard_relation>
=

> <actual_activity_value>
5.552841968657781

> <predicted_activity_value>
5.1487416512809245

> <Publication_ID>
nan

$$$$
17
  CDPL    08252113263D 1   1.00000     0.00000

 31 33  0     0  0            999 V2000
    0.0000    0.0000    0.0000 C   0  0  0  0  0  4           0  0  0
    0.0000    0.0000    0.0000 C   0  0  0  0  0  4           0  0  0
    0.0000    0.0000    0.0000 C   0  0  0  0  0  4           0  0  0
    0.0000    0.0000    0.0000 C   0  0  0  0  0  4           0  0  0
    0.0000    0.0000    0.0000 C   0  0  0  0  0  4           0  0  0
    0.0000    0.0000    0.0000 N   0  0  0  0  0  3           0  0  0
    0.0000    0.0000    0.0000 C   0  0  0  0  0  4           0  0  0
    0.0000    0.0000    0.0000 Cl  0  0  0  0  0  1           0  0  0
    0.0000    0.0000    0.0000 C   0  0  0  0  0  4           0  0  0
    0.0000    0.0000    0.0000 C   0  0  0  0  0  4           0  0  0
    0.0000    0.0000    0.0000 O   0  0  0  0  0  2           0  0  0
    0.0000    0.0000    0.0000 C   0  0  0  0  0  4           0  0  0
    0.0000    0.0000    0.0000 C   0  0  0  0  0  4           0  0  0
    0.0000    0.0000    0.0000 O   0  0  0  0  0  2           0  0  0
    0.0000    0.0000    0.0000 N   0  0  0  0  0  3           0  0  0
    0.0000    0.0000    0.0000 C   0  0  0  0  0  4           0  0  0
    0.0000    0.0000    0.0000 C   0  0  0  0  0  4           0  0  0
    0.0000    0.0000    0.0000 C   0  0  0  0  0  4           0  0  0
    0.0000    0.0000    0.0000 C   0  0  0  0  0  4           0  0  0
    0.0000    0.0000    0.0000 C   0  0  0  0  0  4           0  0  0
    0.0000    0.0000    0.0000 C   0  0  0  0  0  4           0  0  0
    0.0000    0.0000    0.0000 C   0  0  0  0  0  4           0  0  0
    0.0000    0.0000    0.0000 C   0  0  0  0  0  4           0  0  0
    0.0000    0.0000    0.0000 C   0  0  0  0  0  4           0  0  0
    0.0000    0.0000    0.0000 C   0  0  0  0  0  4           0  0  0
    0.0000    0.0000    0.0000 C   0  0  0  0  0  4           0  0  0
    0.0000    0.0000    0.0000 C   0  0  0  0  0  4           0  0  0
    0.0000    0.0000    0.0000 O   0  0  0  0  0  2           0  0  0
    0.0000    0.0000    0.0000 O   0  0  0  0  0  2           0  0  0
    0.0000    0.0000    0.0000 C   0  0  0  0  0  4           0  0  0
    0.0000    0.0000    0.0000 C   0  0  0  0  0  4           0  0  0
  1  2  1  0     0  0
  2  3  1  0     0  0
  3  4  1  0     0  0
  4  5  1  0     0  0
  5  6  2  0     0  0
  6  7  1  0     0  0
  7  8  1  0     0  0
  7  9  2  0     0  0
  9 10  1  0     0  0
 10 11  1  0     0  0
 11 12  1  0     0  0
 12 13  1  0     0  0
 12 14  2  0     0  0
  5 15  1  0     0  0
  9 15  1  0     0  0
 15 16  1  0     0  0
 16 17  1  0     0  0
 17 18  2  0     0  0
 18 19  1  0     0  0
 19 20  2  0     0  0
 20 21  1  0     0  0
 21 22  2  0     0  0
 22 23  1  0     0  0
 23 24  2  0     0  0
 24 25  1  0     0  0
 21 26  1  0     0  0
 25 26  2  0     0  0
 26 27  1  0     0  0
 27 28  1  0     0  0
 27 29  2  0     0  0
 20 30  1  0     0  0
 17 31  1  0     0  0
 30 31  2  0     0  0
M  END
> <Compound>
18

> <canonical_smiles>
CCCCC1=NC(Cl)=C(COC(C)=O)N1CC2=CC=C(C3=CC=CC=C3C(O)=O)C=C2

> <standard_type>
pIC50

> <standard_units>
nM

> <standard_relation>
=

> <actual_activity_value>
5.47755576649368

> <predicted_activity_value>
6.920818753952375

> <Publication_ID>
nan

$$$$
18
  CDPL    08252113263D 1   1.00000     0.00000

 38 41  0     0  0            999 V2000
    0.0000    0.0000    0.0000 C   0  0  0  0  0  4           0  0  0
    0.0000    0.0000    0.0000 C   0  0  0  0  0  4           0  0  0
    0.0000    0.0000    0.0000 C   0  0  0  0  0  4           0  0  0
    0.0000    0.0000    0.0000 C   0  0  0  0  0  4           0  0  0
    0.0000    0.0000    0.0000 C   0  0  0  0  0  4           0  0  0
    0.0000    0.0000    0.0000 N   0  0  0  0  0  3           0  0  0
    0.0000    0.0000    0.0000 C   0  0  0  0  0  4           0  0  0
    0.0000    0.0000    0.0000 Cl  0  0  0  0  0  1           0  0  0
    0.0000    0.0000    0.0000 C   0  0  0  0  0  4           0  0  0
    0.0000    0.0000    0.0000 C   0  0  0  0  0  4           0  0  0
    0.0000    0.0000    0.0000 C   0  0  0  0  0  4           0  0  0
    0.0000    0.0000    0.0000 O   0  0  0  0  0  2           0  0  0
    0.0000    0.0000    0.0000 C   0  0  0  0  0  4           0  0  0
    0.0000    0.0000    0.0000 O   0  0  0  0  0  2           0  0  0
    0.0000    0.0000    0.0000 N   0  0  0  0  0  3           0  0  0
    0.0000    0.0000    0.0000 C   0  0  0  0  0  4           0  0  0
    0.0000    0.0000    0.0000 C   0  0  0  0  0  4           0  0  0
    0.0000    0.0000    0.0000 C   0  0  0  0  0  4           0  0  0
    0.0000    0.0000    0.0000 C   0  0  0  0  0  4           0  0  0
    0.0000    0.0000    0.0000 C   0  0  0  0  0  4           0  0  0
    0.0000    0.0000    0.0000 N   0  0  0  0  0  3           0  0  0
    0.0000    0.0000    0.0000 C   0  0  0  0  0  4           0  0  0
    0.0000    0.0000    0.0000 C   0  0  0  0  0  4           0  0  0
    0.0000    0.0000    0.0000 C   0  0  0  0  0  4           0  0  0
    0.0000    0.0000    0.0000 C   0  0  0  0  0  4           0  0  0
    0.0000    0.0000    0.0000 C   0  0  0  0  0  4           0  0  0
    0.0000    0.0000    0.0000 C   0  0  0  0  0  4           0  0  0
    0.0000    0.0000    0.0000 C   0  0  0  0  0  4           0  0  0
    0.0000    0.0000    0.0000 C   0  0  0  0  0  4           0  0  0
    0.0000    0.0000    0.0000 C   0  0  0  0  0  4           0  0  0
    0.0000    0.0000    0.0000 C   0  0  0  0  0  4           0  0  0
    0.0000    0.0000    0.0000 C   0  0  0  0  0  4           0  0  0
    0.0000    0.0000    0.0000 C   0  0  0  0  0  4           0  0  0
    0.0000    0.0000    0.0000 O   0  0  0  0  0  2           0  0  0
    0.0000    0.0000    0.0000 O   0  0  0  0  0  2           0  0  0
    0.0000    0.0000    0.0000 O   0  0  0  0  0  2           0  0  0
    0.0000    0.0000    0.0000 C   0  0  0  0  0  4           0  0  0
    0.0000    0.0000    0.0000 C   0  0  0  0  0  4           0  0  0
  1  2  1  0     0  0
  2  3  1  0     0  0
  3  4  1  0     0  0
  4  5  1  0     0  0
  5  6  2  0     0  0
  6  7  1  0     0  0
  7  8  1  0     0  0
  7  9  2  0     0  0
  9 10  1  0     0  0
 10 11  1  0     0  0
 11 12  1  0     0  0
 12 13  1  0     0  0
 11 14  2  0     0  0
  5 15  1  0     0  0
  9 15  1  0     0  0
 15 16  1  0     0  0
 16 17  1  0     0  0
 17 18  2  0     0  0
 18 19  1  0     0  0
 19 20  2  0     0  0
 20 21  1  0     0  0
 21 22  1  0     0  0
 22 23  1  0     0  0
 23 24  2  0     0  0
 24 25  1  0     0  0
 25 26  2  0     0  0
 26 27  1  0     0  0
 27 28  2  0     0  0
 28 29  1  0     0  0
 29 30  2  0     0  0
 30 31  1  0     0  0
 26 31  1  0     0  0
 23 32  1  0     0  0
 31 32  2  0     0  0
 32 33  1  0     0  0
 33 34  1  0     0  0
 33 35  2  0     0  0
 22 36  2  0     0  0
 20 37  1  0     0  0
 17 38  1  0     0  0
 37 38  2  0     0  0
M  END
> <Compound>
19

> <canonical_smiles>
CCCCC1=NC(Cl)=C(CC(OC)=O)N1CC2=CC=C(NC(C3=CC=C(C=CC=C4)C4=C3C(O)=O)=O)C=C2

> <standard_type>
pIC50

> <standard_units>
nM

> <standard_relation>
=

> <actual_activity_value>
5.236572006437063

> <predicted_activity_value>
5.522878745280337

> <Publication_ID>
nan

$$$$
19
  CDPL    08252113263D 1   1.00000     0.00000

 28 30  0     0  0            999 V2000
    0.0000    0.0000    0.0000 Cl  0  0  0  0  0  1           0  0  0
    0.0000    0.0000    0.0000 C   0  0  0  0  0  4           0  0  0
    0.0000    0.0000    0.0000 N   0  0  0  0  0  3           0  0  0
    0.0000    0.0000    0.0000 C   0  0  0  0  0  4           0  0  0
    0.0000    0.0000    0.0000 C   0  0  0  0  0  4           0  0  0
    0.0000    0.0000    0.0000 C   0  0  0  0  0  4           0  0  0
    0.0000    0.0000    0.0000 C   0  0  0  0  0  4           0  0  0
    0.0000    0.0000    0.0000 C   0  0  0  0  0  4           0  0  0
    0.0000    0.0000    0.0000 C   0  0  0  0  0  4           0  0  0
    0.0000    0.0000    0.0000 C   0  0  0  0  0  4           0  0  0
    0.0000    0.0000    0.0000 O   0  0  0  0  0  2           0  0  0
    0.0000    0.0000    0.0000 N   0  0  0  0  0  3           0  0  0
    0.0000    0.0000    0.0000 C   0  0  0  0  0  4           0  0  0
    0.0000    0.0000    0.0000 C   0  0  0  0  0  4           0  0  0
    0.0000    0.0000    0.0000 C   0  0  0  0  0  4           0  0  0
    0.0000    0.0000    0.0000 C   0  0  0  0  0  4           0  0  0
    0.0000    0.0000    0.0000 C   0  0  0  0  0  4           0  0  0
    0.0000    0.0000    0.0000 C   0  0  0  0  0  4           0  0  0
    0.0000    0.0000    0.0000 C   0  0  0  0  0  4           0  0  0
    0.0000    0.0000    0.0000 C   0  0  0  0  0  4           0  0  0
    0.0000    0.0000    0.0000 C   0  0  0  0  0  4           0  0  0
    0.0000    0.0000    0.0000 C   0  0  0  0  0  4           0  0  0
    0.0000    0.0000    0.0000 C   0  0  0  0  0  4           0  0  0
    0.0000    0.0000    0.0000 C   0  0  0  0  0  4           0  0  0
    0.0000    0.0000    0.0000 O   0  0  0  0  0  2           0  0  0
    0.0000    0.0000    0.0000 O   0  0  0  0  0  2           0  0  0
    0.0000    0.0000    0.0000 C   0  0  0  0  0  4           0  0  0
    0.0000    0.0000    0.0000 C   0  0  0  0  0  4           0  0  0
  1  2  1  0     0  0
  2  3  1  0     0  0
  3  4  2  0     0  0
  4  5  1  0     0  0
  5  6  1  0     0  0
  6  7  1  0     0  0
  7  8  1  0     0  0
  2  9  2  0     0  0
  9 10  1  0     0  0
 10 11  1  0     0  0
  4 12  1  0     0  0
  9 12  1  0     0  0
 12 13  1  0     0  0
 13 14  1  0     0  0
 14 15  2  0     0  0
 15 16  1  0     0  0
 16 17  2  0     0  0
 17 18  1  0     0  0
 18 19  2  0     0  0
 19 20  1  0     0  0
 20 21  2  0     0  0
 21 22  1  0     0  0
 18 23  1  0     0  0
 22 23  2  0     0  0
 23 24  1  0     0  0
 24 25  1  0     0  0
 24 26  2  0     0  0
 17 27  1  0     0  0
 14 28  1  0     0  0
 27 28  2  0     0  0
M  END
> <Compound>
20

> <canonical_smiles>
ClC(N=C1CCCC)=C(CO)N1CC2=CC=C(C3=CC=CC=C3C(O)=O)C=C2

> <standard_type>
pIC50

> <standard_units>
nM

> <standard_relation>
=

> <actual_activity_value>
4.958607314841775

> <predicted_activity_value>
5.0

> <Publication_ID>
nan

$$$$
20
  CDPL    08252113263D 1   1.00000     0.00000

 25 26  0     0  0            999 V2000
    0.0000    0.0000    0.0000 C   0  0  0  0  0  4           0  0  0
    0.0000    0.0000    0.0000 C   0  0  0  0  0  4           0  0  0
    0.0000    0.0000    0.0000 C   0  0  0  0  0  4           0  0  0
    0.0000    0.0000    0.0000 C   0  0  0  0  0  4           0  0  0
    0.0000    0.0000    0.0000 C   0  0  0  0  0  4           0  0  0
    0.0000    0.0000    0.0000 N   0  0  0  0  0  3           0  0  0
    0.0000    0.0000    0.0000 C   0  0  0  0  0  4           0  0  0
    0.0000    0.0000    0.0000 Cl  0  0  0  0  0  1           0  0  0
    0.0000    0.0000    0.0000 C   0  0  0  0  0  4           0  0  0
    0.0000    0.0000    0.0000 C   0  0  0  0  0  4           0  0  0
    0.0000    0.0000    0.0000 C   0  0  0  0  0  4           0  0  0
    0.0000    0.0000    0.0000 O   0  0  0  0  0  2           0  0  0
    0.0000    0.0000    0.0000 O   0  0  0  0  0  2           0  0  0
    0.0000    0.0000    0.0000 N   0  0  0  0  0  3           0  0  0
    0.0000    0.0000    0.0000 C   0  0  0  0  0  4           0  0  0
    0.0000    0.0000    0.0000 C   0  0  0  0  0  4           0  0  0
    0.0000    0.0000    0.0000 C   0  0  0  0  0  4           0  0  0
    0.0000    0.0000    0.0000 C   0  0  0  0  0  4           0  0  0
    0.0000    0.0000    0.0000 C   0  0  0  0  0  4           0  0  0
    0.0000    0.0000    0.0000 C   0  0  0  0  0  4           0  0  0
    0.0000    0.0000    0.0000 C   0  0  0  0  0  4           0  0  0
    0.0000    0.0000    0.0000 O   0  0  0  0  0  2           0  0  0
    0.0000    0.0000    0.0000 O   0  0  0  0  0  2           0  0  0
    0.0000    0.0000    0.0000 C   0  0  0  0  0  4           0  0  0
    0.0000    0.0000    0.0000 C   0  0  0  0  0  4           0  0  0
  1  2  1  0     0  0
  2  3  1  0     0  0
  3  4  1  0     0  0
  4  5  1  0     0  0
  5  6  2  0     0  0
  6  7  1  0     0  0
  7  8  1  0     0  0
  7  9  2  0     0  0
  9 10  1  0     0  0
 10 11  1  0     0  0
 11 12  1  0     0  0
 11 13  2  0     0  0
  5 14  1  0     0  0
  9 14  1  0     0  0
 14 15  1  0     0  0
 15 16  1  0     0  0
 16 17  2  0     0  0
 17 18  1  0     0  0
 18 19  2  0     0  0
 19 20  1  0     0  0
 20 21  1  0     0  0
 21 22  1  0     0  0
 21 23  2  0     0  0
 19 24  1  0     0  0
 16 25  1  0     0  0
 24 25  2  0     0  0
M  END
> <Compound>
21

> <canonical_smiles>
CCCCC1=NC(Cl)=C(CC(O)=O)N1CC2=CC=C(CC(O)=O)C=C2

> <standard_type>
pIC50

> <standard_units>
nM

> <standard_relation>
=

> <actual_activity_value>
4.886056647693163

> <predicted_activity_value>
5.0

> <Publication_ID>
nan

$$$$
21
  CDPL    08252113263D 1   1.00000     0.00000

 31 32  0     0  0            999 V2000
    0.0000    0.0000    0.0000 C   0  0  0  0  0  4           0  0  0
    0.0000    0.0000    0.0000 C   0  0  0  0  0  4           0  0  0
    0.0000    0.0000    0.0000 C   0  0  0  0  0  4           0  0  0
    0.0000    0.0000    0.0000 C   0  0  0  0  0  4           0  0  0
    0.0000    0.0000    0.0000 C   0  0  0  0  0  4           0  0  0
    0.0000    0.0000    0.0000 N   0  0  0  0  0  3           0  0  0
    0.0000    0.0000    0.0000 C   0  0  0  0  0  4           0  0  0
    0.0000    0.0000    0.0000 Cl  0  0  0  0  0  1           0  0  0
    0.0000    0.0000    0.0000 C   0  0  0  0  0  4           0  0  0
    0.0000    0.0000    0.0000 C   0  0  0  0  0  4           0  0  0
    0.0000    0.0000    0.0000 C   0  0  0  0  0  4           0  0  0
    0.0000    0.0000    0.0000 O   0  0  0  0  0  2           0  0  0
    0.0000    0.0000    0.0000 C   0  0  0  0  0  4           0  0  0
    0.0000    0.0000    0.0000 O   0  0  0  0  0  2           0  0  0
    0.0000    0.0000    0.0000 N   0  0  0  0  0  3           0  0  0
    0.0000    0.0000    0.0000 C   0  0  0  0  0  4           0  0  0
    0.0000    0.0000    0.0000 C   0  0  0  0  0  4           0  0  0
    0.0000    0.0000    0.0000 C   0  0  0  0  0  4           0  0  0
    0.0000    0.0000    0.0000 C   0  0  0  0  0  4           0  0  0
    0.0000    0.0000    0.0000 C   0  0  0  0  0  4           0  0  0
    0.0000    0.0000    0.0000 N   0  0  0  0  0  3           0  0  0
    0.0000    0.0000    0.0000 C   0  0  0  0  0  4           0  0  0
    0.0000    0.0000    0.0000 C   0  0  0  0  0  4           0  0  0
    0.0000    0.0000    0.0000 C   0  0  0  0  0  4           0  0  0
    0.0000    0.0000    0.0000 C   0  0  0  0  0  4           0  0  0
    0.0000    0.0000    0.0000 C   0  0  0  0  0  4           0  0  0
    0.0000    0.0000    0.0000 O   0  0  0  0  0  2           0  0  0
    0.0000    0.0000    0.0000 O   0  0  0  0  0  2           0  0  0
    0.0000    0.0000    0.0000 O   0  0  0  0  0  2           0  0  0
    0.0000    0.0000    0.0000 C   0  0  0  0  0  4           0  0  0
    0.0000    0.0000    0.0000 C   0  0  0  0  0  4           0  0  0
  1  2  1  0     0  0
  2  3  1  0     0  0
  3  4  1  0     0  0
  4  5  1  0     0  0
  5  6  2  0     0  0
  6  7  1  0     0  0
  7  8  1  0     0  0
  7  9  2  0     0  0
  9 10  1  0     0  0
 10 11  1  0     0  0
 11 12  1  0     0  0
 12 13  1  0     0  0
 11 14  2  0     0  0
  5 15  1  0     0  0
  9 15  1  0     0  0
 15 16  1  0     0  0
 16 17  1  0     0  0
 17 18  2  0     0  0
 18 19  1  0     0  0
 19 20  2  0     0  0
 20 21  1  0     0  0
 21 22  1  0     0  0
 22 23  1  0     0  0
 23 24  1  0     0  0
 24 25  1  0     0  0
 25 26  1  0     0  0
 26 27  1  0     0  0
 26 28  2  0     0  0
 22 29  2  0     0  0
 20 30  1  0     0  0
 17 31  1  0     0  0
 30 31  2  0     0  0
M  END
> <Compound>
22

> <canonical_smiles>
CCCCC1=NC(Cl)=C(CC(OC)=O)N1CC2=CC=C(NC(CCCC(O)=O)=O)C=C2

> <standard_type>
pIC50

> <standard_units>
nM

> <standard_relation>
=

> <actual_activity_value>
4.494850021680094

> <predicted_activity_value>
5.0

> <Publication_ID>
nan

$$$$
22
  CDPL    08252113263D 1   1.00000     0.00000

 30 31  0     0  0            999 V2000
    0.0000    0.0000    0.0000 C   0  0  0  0  0  4           0  0  0
    0.0000    0.0000    0.0000 C   0  0  0  0  0  4           0  0  0
    0.0000    0.0000    0.0000 C   0  0  0  0  0  4           0  0  0
    0.0000    0.0000    0.0000 C   0  0  0  0  0  4           0  0  0
    0.0000    0.0000    0.0000 C   0  0  0  0  0  4           0  0  0
    0.0000    0.0000    0.0000 N   0  0  0  0  0  3           0  0  0
    0.0000    0.0000    0.0000 C   0  0  0  0  0  4           0  0  0
    0.0000    0.0000    0.0000 Cl  0  0  0  0  0  1           0  0  0
    0.0000    0.0000    0.0000 C   0  0  0  0  0  4           0  0  0
    0.0000    0.0000    0.0000 C   0  0  0  0  0  4           0  0  0
    0.0000    0.0000    0.0000 C   0  0  0  0  0  4           0  0  0
    0.0000    0.0000    0.0000 O   0  0  0  0  0  2           0  0  0
    0.0000    0.0000    0.0000 C   0  0  0  0  0  4           0  0  0
    0.0000    0.0000    0.0000 O   0  0  0  0  0  2           0  0  0
    0.0000    0.0000    0.0000 N   0  0  0  0  0  3           0  0  0
    0.0000    0.0000    0.0000 C   0  0  0  0  0  4           0  0  0
    0.0000    0.0000    0.0000 C   0  0  0  0  0  4           0  0  0
    0.0000    0.0000    0.0000 C   0  0  0  0  0  4           0  0  0
    0.0000    0.0000    0.0000 C   0  0  0  0  0  4           0  0  0
    0.0000    0.0000    0.0000 C   0  0  0  0  0  4           0  0  0
    0.0000    0.0000    0.0000 N   0  0  0  0  0  3           0  0  0
    0.0000    0.0000    0.0000 C   0  0  0  0  0  4           0  0  0
    0.0000    0.0000    0.0000 C   0  0  0  0  0  4           0  0  0
    0.0000    0.0000    0.0000 C   0  0  0  0  0  4           0  0  0
    0.0000    0.0000    0.0000 C   0  0  0  0  0  4           0  0  0
    0.0000    0.0000    0.0000 O   0  0  0  0  0  2           0  0  0
    0.0000    0.0000    0.0000 O   0  0  0  0  0  2           0  0  0
    0.0000    0.0000    0.0000 O   0  0  0  0  0  2           0  0  0
    0.0000    0.0000    0.0000 C   0  0  0  0  0  4           0  0  0
    0.0000    0.0000    0.0000 C   0  0  0  0  0  4           0  0  0
  1  2  1  0     0  0
  2  3  1  0     0  0
  3  4  1  0     0  0
  4  5  1  0     0  0
  5  6  2  0     0  0
  6  7  1  0     0  0
  7  8  1  0     0  0
  7  9  2  0     0  0
  9 10  1  0     0  0
 10 11  1  0     0  0
 11 12  1  0     0  0
 12 13  1  0     0  0
 11 14  2  0     0  0
  5 15  1  0     0  0
  9 15  1  0     0  0
 15 16  1  0     0  0
 16 17  1  0     0  0
 17 18  2  0     0  0
 18 19  1  0     0  0
 19 20  2  0     0  0
 20 21  1  0     0  0
 21 22  1  0     0  0
 22 23  1  0     0  0
 23 24  1  0     0  0
 24 25  1  0     0  0
 25 26  1  0     0  0
 25 27  2  0     0  0
 22 28  2  0     0  0
 20 29  1  0     0  0
 17 30  1  0     0  0
 29 30  2  0     0  0
M  END
> <Compound>
23

> <canonical_smiles>
CCCCC1=NC(Cl)=C(CC(OC)=O)N1CC2=CC=C(NC(CCC(O)=O)=O)C=C2

> <standard_type>
pIC50

> <standard_units>
nM

> <standard_relation>
=

> <actual_activity_value>
4.337242168318426

> <predicted_activity_value>
5.0

> <Publication_ID>
nan

$$$$
23
  CDPL    08252113263D 1   1.00000     0.00000

 22 23  0     0  0            999 V2000
    0.0000    0.0000    0.0000 C   0  0  0  0  0  4           0  0  0
    0.0000    0.0000    0.0000 C   0  0  0  0  0  4           0  0  0
    0.0000    0.0000    0.0000 C   0  0  0  0  0  4           0  0  0
    0.0000    0.0000    0.0000 C   0  0  0  0  0  4           0  0  0
    0.0000    0.0000    0.0000 C   0  0  0  0  0  4           0  0  0
    0.0000    0.0000    0.0000 N   0  0  0  0  0  3           0  0  0
    0.0000    0.0000    0.0000 C   0  0  0  0  0  4           0  0  0
    0.0000    0.0000    0.0000 Cl  0  0  0  0  0  1           0  0  0
    0.0000    0.0000    0.0000 C   0  0  0  0  0  4           0  0  0
    0.0000    0.0000    0.0000 C   0  0  0  0  0  4           0  0  0
    0.0000    0.0000    0.0000 O   0  0  0  0  0  2           0  0  0
    0.0000    0.0000    0.0000 N   0  0  0  0  0  3           0  0  0
    0.0000    0.0000    0.0000 C   0  0  0  0  0  4           0  0  0
    0.0000    0.0000    0.0000 C   0  0  0  0  0  4           0  0  0
    0.0000    0.0000    0.0000 C   0  0  0  0  0  4           0  0  0
    0.0000    0.0000    0.0000 C   0  0  0  0  0  4           0  0  0
    0.0000    0.0000    0.0000 C   0  0  0  0  0  4           0  0  0
    0.0000    0.0000    0.0000 C   0  0  0  0  0  4           0  0  0
    0.0000    0.0000    0.0000 O   0  0  0  0  0  2           0  0  0
    0.0000    0.0000    0.0000 O   0  0  0  0  0  2           0  0  0
    0.0000    0.0000    0.0000 C   0  0  0  0  0  4           0  0  0
    0.0000    0.0000    0.0000 C   0  0  0  0  0  4           0  0  0
  1  2  1  0     0  0
  2  3  1  0     0  0
  3  4  1  0     0  0
  4  5  1  0     0  0
  5  6  2  0     0  0
  6  7  1  0     0  0
  7  8  1  0     0  0
  7  9  2  0     0  0
  9 10  1  0     0  0
 10 11  1  0     0  0
  5 12  1  0     0  0
  9 12  1  0     0  0
 12 13  1  0     0  0
 13 14  1  0     0  0
 14 15  2  0     0  0
 15 16  1  0     0  0
 16 17  2  0     0  0
 17 18  1  0     0  0
 18 19  1  0     0  0
 18 20  2  0     0  0
 17 21  1  0     0  0
 14 22  1  0     0  0
 21 22  2  0     0  0
M  END
> <Compound>
24

> <canonical_smiles>
CCCCC1=NC(Cl)=C(CO)N1CC2=CC=C(C(O)=O)C=C2

> <standard_type>
pIC50

> <standard_units>
nM

> <standard_relation>
=

> <actual_activity_value>
4.0

> <predicted_activity_value>
5.0

> <Publication_ID>
nan

$$$$
24
  CDPL    08252113263D 1   1.00000     0.00000

 21 22  0     0  0            999 V2000
    0.0000    0.0000    0.0000 C   0  0  0  0  0  4           0  0  0
    0.0000    0.0000    0.0000 C   0  0  0  0  0  4           0  0  0
    0.0000    0.0000    0.0000 C   0  0  0  0  0  4           0  0  0
    0.0000    0.0000    0.0000 C   0  0  0  0  0  4           0  0  0
    0.0000    0.0000    0.0000 C   0  0  0  0  0  4           0  0  0
    0.0000    0.0000    0.0000 N   0  0  0  0  0  3           0  0  0
    0.0000    0.0000    0.0000 C   0  0  0  0  0  4           0  0  0
    0.0000    0.0000    0.0000 Cl  0  0  0  0  0  1           0  0  0
    0.0000    0.0000    0.0000 C   0  0  0  0  0  4           0  0  0
    0.0000    0.0000    0.0000 C   0  0  0  0  0  4           0  0  0
    0.0000    0.0000    0.0000 C   0  0  0  0  0  4           0  0  0
    0.0000    0.0000    0.0000 O   0  0  0  0  0  2           0  0  0
    0.0000    0.0000    0.0000 O   0  0  0  0  0  2           0  0  0
    0.0000    0.0000    0.0000 N   0  0  0  0  0  3           0  0  0
    0.0000    0.0000    0.0000 C   0  0  0  0  0  4           0  0  0
    0.0000    0.0000    0.0000 C   0  0  0  0  0  4           0  0  0
    0.0000    0.0000    0.0000 C   0  0  0  0  0  4           0  0  0
    0.0000    0.0000    0.0000 C   0  0  0  0  0  4           0  0  0
    0.0000    0.0000    0.0000 C   0  0  0  0  0  4           0  0  0
    0.0000    0.0000    0.0000 C   0  0  0  0  0  4           0  0  0
    0.0000    0.0000    0.0000 C   0  0  0  0  0  4           0  0  0
  1  2  1  0     0  0
  2  3  1  0     0  0
  3  4  1  0     0  0
  4  5  1  0     0  0
  5  6  2  0     0  0
  6  7  1  0     0  0
  7  8  1  0     0  0
  7  9  2  0     0  0
  9 10  1  0     0  0
 10 11  1  0     0  0
 11 12  1  0     0  0
 11 13  2  0     0  0
  5 14  1  0     0  0
  9 14  1  0     0  0
 14 15  1  0     0  0
 15 16  1  0     0  0
 16 17  2  0     0  0
 17 18  1  0     0  0
 18 19  2  0     0  0
 19 20  1  0     0  0
 16 21  1  0     0  0
 20 21  2  0     0  0
M  END
> <Compound>
25

> <canonical_smiles>
CCCCC1=NC(Cl)=C(CC(O)=O)N1CC2=CC=CC=C2

> <standard_type>
pIC50

> <standard_units>
nM

> <standard_relation>
=

> <actual_activity_value>
3.8239087409443187

> <predicted_activity_value>
5.0

> <Publication_ID>
nan

$$$$
